data_mof_unit_3186.cif
_audit_creation_date              2013-03-05T15:44:01-0500
_audit_creation_method            fapswitch 2.2
_symmetry_space_group_name_H-M    P1
_symmetry_Int_Tables_number       1
_space_group_crystal_system       triclinic
_cell_length_a                    30.63615
_cell_length_b                    22.333275
_cell_length_c                    18.059508
_cell_angle_alpha                 90.195922
_cell_angle_beta                  123.299075
_cell_angle_gamma                 89.799611
_cell_volume                      10327.6130551

loop_
_atom_site_label
_atom_site_type_symbol
_atom_site_description
_atom_site_fract_x
_atom_site_fract_y
_atom_site_fract_z
_atom_type_partial_charge
C1    C     C_R   0.542651 0.588230 0.737866 -0.057392
C2    C     C_R   0.455455 0.415122 0.258521 -0.063632
C3    C     C_R   0.464806 0.602969 0.281847 -0.065656
C4    C     C_R   0.535012 0.396564 0.717430 -0.067159
C5    C     C_R   0.034579 0.104795 0.715708 -0.059928
C6    C     C_R   0.965061 0.896559 0.282268 -0.064940
C7    C     C_R   0.958401 0.090368 0.264675 -0.046711
C8    C     C_R   0.042606 0.911835 0.737618 -0.055842
H1    H     H_    0.518135 0.585318 0.763602 0.122683
H2    H     H_    0.479632 0.420024 0.232422 0.135231
H3    H     H_    0.496465 0.614603 0.274719 0.138367
H4    H     H_    0.503195 0.384628 0.723990 0.139023
H5    H     H_    0.002797 0.116617 0.722554 0.137798
H6    H     H_    0.996803 0.884741 0.275277 0.138749
H7    H     H_    0.983566 0.088764 0.240125 0.121537
H8    H     H_    0.018038 0.914878 0.763274 0.122325
N1    N     N_R   0.532970 0.559900 0.665210 -0.055523
N2    N     N_R   0.467030 0.440100 0.334790 -0.057428
N3    N     N_R   0.467030 0.559900 0.334790 -0.055353
N4    N     N_R   0.532970 0.440100 0.665210 -0.055642
N5    N     N_R   0.032970 0.059900 0.665210 -0.056042
N6    N     N_R   0.967030 0.940100 0.334790 -0.055827
N7    N     N_R   0.967030 0.059900 0.334790 -0.056054
N8    N     N_R   0.032970 0.940100 0.665210 -0.055723
C9    C     C_R   0.644962 0.580911 0.573557 -0.115290
C10   C     C_R   0.353692 0.424498 0.429269 -0.115235
C11   C     C_R   0.373398 0.610163 0.428070 -0.126714
C12   C     C_R   0.626004 0.389358 0.571714 -0.122655
C13   C     C_R   0.133403 0.102577 0.573046 -0.131047
C14   C     C_R   0.873129 0.890162 0.427918 -0.125249
C15   C     C_R   0.855023 0.081115 0.426454 -0.115199
C16   C     C_R   0.145120 0.919388 0.573514 -0.114931
H9    H     H_    0.677542 0.576960 0.641470 0.085651
H10   H     H_    0.320084 0.428684 0.362150 0.087194
H11   H     H_    0.343824 0.621308 0.360695 0.086878
H12   H     H_    0.655631 0.378029 0.638974 0.086670
H13   H     H_    0.163962 0.110119 0.641144 0.085981
H14   H     H_    0.843402 0.879155 0.360524 0.086876
H15   H     H_    0.822482 0.077062 0.358521 0.085498
H16   H     H_    0.177629 0.923513 0.641460 0.085011
N9    N     N_R   0.597900 0.559930 0.545530 -0.040506
N10   N     N_R   0.402100 0.440070 0.454470 -0.040770
N11   N     N_R   0.402100 0.559930 0.454470 -0.042016
N12   N     N_R   0.597900 0.440070 0.545530 -0.042062
N13   N     N_R   0.097900 0.059930 0.545530 -0.041632
N14   N     N_R   0.902100 0.940070 0.454470 -0.042009
N15   N     N_R   0.902100 0.059930 0.454470 -0.040448
N16   N     N_R   0.097900 0.940070 0.545530 -0.040488
C17   C     C_R   0.596708 0.580501 0.426252 -0.138158
C18   C     C_R   0.403847 0.424851 0.576180 -0.139202
C19   C     C_R   0.424507 0.610493 0.575616 -0.112629
C20   C     C_R   0.574425 0.388936 0.424173 -0.120565
C21   C     C_R   0.082566 0.104438 0.424706 -0.112165
C22   C     C_R   0.924305 0.889857 0.575498 -0.112407
C23   C     C_R   0.903193 0.080735 0.573724 -0.139996
C24   C     C_R   0.096943 0.919818 0.426270 -0.139211
H17   H     H_    0.585647 0.577004 0.358387 0.112763
H18   H     H_    0.416792 0.431370 0.644566 0.110580
H19   H     H_    0.443862 0.622308 0.644420 0.132713
H20   H     H_    0.554083 0.376845 0.355225 0.133888
H21   H     H_    0.066267 0.114611 0.355926 0.127697
H22   H     H_    0.943603 0.878207 0.644284 0.132467
H23   H     H_    0.914175 0.077283 0.641531 0.113321
H24   H     H_    0.085930 0.923516 0.358473 0.111940
N17   N     N_R   0.567170 0.559950 0.454460 -0.046363
N18   N     N_R   0.432830 0.440050 0.545540 -0.046860
N19   N     N_R   0.432830 0.559950 0.545540 -0.047799
N20   N     N_R   0.567170 0.440050 0.454460 -0.046719
N21   N     N_R   0.067170 0.059950 0.454460 -0.046698
N22   N     N_R   0.932830 0.940050 0.545540 -0.047983
N23   N     N_R   0.932830 0.059950 0.545540 -0.046820
N24   N     N_R   0.067170 0.940050 0.454460 -0.046672
C25   C     C_R   0.388815 0.598819 0.272228 -0.148758
C26   C     C_R   0.611108 0.401008 0.727471 -0.150161
C27   C     C_R   0.614595 0.591809 0.734952 -0.128629
C28   C     C_R   0.384138 0.411339 0.262852 -0.125565
C29   C     C_R   0.885945 0.093315 0.266603 -0.131268
C30   C     C_R   0.114625 0.908142 0.734850 -0.128748
C31   C     C_R   0.110093 0.101836 0.723559 -0.136784
C32   C     C_R   0.889062 0.900787 0.272682 -0.148670
H25   H     H_    0.347937 0.603593 0.247505 0.097460
H26   H     H_    0.652022 0.396397 0.752357 0.097902
H27   H     H_    0.654766 0.595581 0.754682 0.094306
H28   H     H_    0.344227 0.409241 0.244722 0.093311
H29   H     H_    0.845766 0.097577 0.246763 0.095506
H30   H     H_    0.154826 0.904287 0.754677 0.094446
H31   H     H_    0.150396 0.108198 0.745982 0.094753
H32   H     H_    0.848231 0.895950 0.248083 0.097595
N25   N     N_R   0.421470 0.559970 0.334770 -0.044702
N26   N     N_R   0.578530 0.440030 0.665230 -0.045099
N27   N     N_R   0.578530 0.559970 0.665230 -0.045513
N28   N     N_R   0.421470 0.440030 0.334770 -0.045782
N29   N     N_R   0.921470 0.059970 0.334770 -0.046181
N30   N     N_R   0.078530 0.940030 0.665230 -0.045952
N31   N     N_R   0.078530 0.059970 0.665230 -0.046049
N32   N     N_R   0.921470 0.940030 0.334770 -0.045082
C33   C     C_R   0.592703 0.610980 0.781544 0.124683
C34   C     C_R   0.404119 0.394840 0.212404 0.116965
C35   C     C_R   0.416084 0.629355 0.242016 0.119156
C36   C     C_R   0.583710 0.370047 0.757054 0.118736
C37   C     C_R   0.082738 0.132773 0.753614 0.109482
C38   C     C_R   0.916504 0.869945 0.242727 0.118282
C39   C     C_R   0.908414 0.113641 0.221501 0.123382
C40   C     C_R   0.092684 0.889015 0.781229 0.124529
C41   C     C_R   0.646256 0.593370 0.500063 0.080457
C42   C     C_R   0.353343 0.416748 0.504878 0.080278
C43   C     C_R   0.388613 0.644378 0.502978 0.075666
C44   C     C_R   0.610147 0.354862 0.496744 0.073667
C45   C     C_R   0.123549 0.132982 0.498574 0.082239
C46   C     C_R   0.888175 0.856172 0.502750 0.075261
C47   C     C_R   0.853637 0.093737 0.499917 0.080905
C48   C     C_R   0.146613 0.907304 0.500045 0.080922
Ni1   Ni    Ni4+2 0.483030 0.500000 0.604430 0.231916
Ni2   Ni    Ni4+2 0.516970 0.500000 0.395570 0.233709
Ni3   Ni    Ni4+2 0.983030 1.000000 0.604430 0.234130
Ni4   Ni    Ni4+2 0.016970 0.000000 0.395570 0.233538
Ni5   Ni    Ni4+2 0.587400 0.500000 0.604430 0.214407
Ni6   Ni    Ni4+2 0.412600 0.500000 0.395570 0.212747
Ni7   Ni    Ni4+2 0.087400 1.000000 0.604430 0.213857
Ni8   Ni    Ni4+2 0.912600 0.000000 0.395570 0.214664
C49   C     C_R   0.663190 0.263966 0.573459 -0.239857
C50   C     C_R   0.335379 0.735085 0.426091 -0.239903
C51   C     C_R   0.318205 0.386470 0.591994 -0.230241
C52   C     C_R   0.740444 0.619761 0.583699 -0.244293
C53   C     C_R   0.241209 0.882390 0.583812 -0.244997
C54   C     C_R   0.759294 0.119939 0.415971 -0.244666
C55   C     C_R   0.834267 0.765994 0.425732 -0.239712
C56   C     C_R   0.129832 0.224174 0.426182 -0.216472
C57   C     C_R   0.628427 0.294467 0.494265 0.102982
C58   C     C_R   0.370052 0.704622 0.505337 0.100181
C59   C     C_R   0.308427 0.405924 0.510696 0.101910
C60   C     C_R   0.693584 0.607916 0.502084 0.106046
C61   C     C_R   0.194180 0.893599 0.502146 0.105750
C62   C     C_R   0.806130 0.108164 0.497700 0.106237
C63   C     C_R   0.869157 0.796389 0.505012 0.100437
C64   C     C_R   0.150679 0.186593 0.500353 0.102033
C65   C     C_R   0.615516 0.269718 0.413043 -0.213404
C66   C     C_R   0.383152 0.729646 0.586525 -0.195175
C67   C     C_R   0.257874 0.402016 0.433910 -0.245495
C68   C     C_R   0.691451 0.614829 0.423010 -0.235981
C69   C     C_R   0.192156 0.886672 0.423117 -0.236706
C70   C     C_R   0.807929 0.114682 0.576617 -0.236544
C71   C     C_R   0.882148 0.771773 0.586189 -0.195289
C72   C     C_R   0.197669 0.200954 0.579035 -0.260656
C73   C     C_R   0.644311 0.221981 0.411682 0.115181
C74   C     C_R   0.354959 0.778068 0.587867 0.109006
C75   C     C_R   0.220644 0.366969 0.434986 0.139435
C76   C     C_R   0.732839 0.641739 0.424393 0.130712
C77   C     C_R   0.233805 0.860023 0.424601 0.131147
C78   C     C_R   0.766085 0.140939 0.575012 0.131012
C79   C     C_R   0.853809 0.723802 0.587532 0.109148
C80   C     C_R   0.224183 0.252122 0.585051 0.150214
C81   C     C_R   0.685081 0.197579 0.492524 0.031837
C82   C     C_R   0.314352 0.802612 0.507026 0.031181
C83   C     C_R   0.235239 0.336298 0.513516 0.029836
C84   C     C_R   0.776951 0.660806 0.505950 0.033332
C85   C     C_R   0.278022 0.841220 0.506202 0.033354
C86   C     C_R   0.721883 0.159771 0.493395 0.032312
C87   C     C_R   0.813171 0.699226 0.506703 0.031204
C88   C     C_R   0.204635 0.289083 0.510309 0.032648
C89   C     C_R   0.692460 0.216147 0.573234 0.138942
C90   C     C_R   0.306572 0.783407 0.426298 0.139163
C91   C     C_R   0.283552 0.348026 0.593076 0.133423
C92   C     C_R   0.781868 0.646973 0.586149 0.136768
C93   C     C_R   0.282853 0.855333 0.586359 0.136944
C94   C     C_R   0.717418 0.146412 0.413312 0.136438
C95   C     C_R   0.805355 0.718070 0.425949 0.139307
C96   C     C_R   0.157313 0.275078 0.430186 0.115062
C97   C     C_R   0.636952 0.203004 0.331553 -0.162610
C98   C     C_R   0.362778 0.797771 0.668027 -0.156394
C99   C     C_R   0.172043 0.355574 0.356765 -0.204301
C100  C     C_R   0.728690 0.655195 0.345136 -0.176614
C101  C     C_R   0.229778 0.846360 0.345396 -0.177173
C102  C     C_R   0.769747 0.153899 0.654137 -0.176969
C103  C     C_R   0.861635 0.704508 0.667715 -0.156585
C104  C     C_R   0.271732 0.264530 0.663625 -0.217956
C105  C     C_R   0.266308 0.808450 0.346533 -0.207457
C106  C     C_R   0.732806 0.191110 0.652987 -0.207838
C107  C     C_R   0.825728 0.666080 0.667028 -0.203506
C108  C     C_R   0.300393 0.313958 0.669021 -0.177484
C109  C     C_R   0.673459 0.165234 0.332363 -0.201033
C110  C     C_R   0.326796 0.836449 0.667280 -0.203848
C111  C     C_R   0.140086 0.310250 0.354733 -0.158334
C112  C     C_R   0.765070 0.692987 0.346193 -0.207119
H33   H     H_    0.671071 0.280363 0.636093 0.109428
H34   H     H_    0.327290 0.718434 0.363449 0.109676
H35   H     H_    0.356082 0.391922 0.652716 0.134868
H36   H     H_    0.743778 0.612980 0.645786 0.118367
H37   H     H_    0.244513 0.889372 0.645887 0.118157
H38   H     H_    0.756232 0.113612 0.353965 0.118340
H39   H     H_    0.826206 0.782346 0.363098 0.109603
H40   H     H_    0.093230 0.213325 0.365235 0.176905
H41   H     H_    0.586881 0.290742 0.350940 0.163179
H42   H     H_    0.411591 0.708557 0.648660 0.170850
H43   H     H_    0.249179 0.420245 0.371722 0.119591
H44   H     H_    0.656404 0.603763 0.359847 0.134890
H45   H     H_    0.156987 0.897353 0.359916 0.134334
H46   H     H_    0.842979 0.103699 0.639840 0.134810
H47   H     H_    0.910712 0.792809 0.648350 0.170056
H48   H     H_    0.215053 0.171788 0.636009 0.118664
H49   H     H_    0.605191 0.220670 0.268871 0.166799
H50   H     H_    0.394474 0.780042 0.730720 0.172375
H51   H     H_    0.160097 0.379361 0.296248 0.139314
H52   H     H_    0.695636 0.639758 0.282079 0.149435
H53   H     H_    0.196668 0.861637 0.282308 0.148980
H54   H     H_    0.802824 0.138546 0.717216 0.149107
H55   H     H_    0.893333 0.722297 0.730390 0.172199
H56   H     H_    0.287805 0.234056 0.719123 0.129240
H57   H     H_    0.260902 0.795486 0.284699 0.149674
H58   H     H_    0.737891 0.203462 0.714853 0.149937
H59   H     H_    0.830309 0.654753 0.729241 0.138895
H60   H     H_    0.338021 0.321876 0.729789 0.152226
H61   H     H_    0.669235 0.154244 0.270228 0.138515
H62   H     H_    0.331322 0.848017 0.729467 0.138824
H63   H     H_    0.103592 0.300306 0.292967 0.169779
H64   H     H_    0.759597 0.705739 0.284326 0.149501
C113  C     C_R   0.398369 0.684778 0.189118 -0.042207
C114  C     C_R   0.601424 0.314294 0.809285 -0.042489
C115  C     C_R   0.620357 0.639222 0.869589 -0.049321
C116  C     C_R   0.373220 0.372774 0.119685 -0.042744
C117  C     C_R   0.881042 0.142554 0.134078 -0.048571
C118  C     C_R   0.120244 0.860845 0.869141 -0.049001
C119  C     C_R   0.100074 0.188368 0.807661 -0.043164
C120  C     C_R   0.898949 0.814287 0.189994 -0.042716
C121  C     C_R   0.400535 0.761966 0.096866 -0.294635
C122  C     C_R   0.599161 0.236177 0.900272 -0.294258
C123  C     C_R   0.623506 0.699043 0.984556 -0.285698
C124  C     C_R   0.364717 0.328866 0.989209 -0.286731
C125  C     C_R   0.878331 0.202300 0.019886 -0.286424
C126  C     C_R   0.123178 0.801571 0.983880 -0.285564
C127  C     C_R   0.095230 0.263402 0.900822 -0.291079
C128  C     C_R   0.901005 0.736754 0.097391 -0.295015
C129  C     C_R   0.418295 0.706522 0.139760 0.354350
C130  C     C_R   0.581081 0.291621 0.857532 0.354657
C131  C     C_R   0.594405 0.673797 0.900015 0.372301
C132  C     C_R   0.396503 0.346912 0.077643 0.369961
C133  C     C_R   0.907162 0.177408 0.104624 0.368832
C134  C     C_R   0.094199 0.826567 0.899296 0.371597
C135  C     C_R   0.079032 0.208385 0.856402 0.353786
C136  C     C_R   0.918891 0.792142 0.140636 0.355597
C137  C     C_R   0.360660 0.718101 0.191715 -0.276710
C138  C     C_R   0.639756 0.281728 0.807446 -0.276950
C139  C     C_R   0.674396 0.631246 0.924071 -0.272022
C140  C     C_R   0.318556 0.377806 0.072155 -0.267228
C141  C     C_R   0.827144 0.134048 0.078561 -0.271788
C142  C     C_R   0.174242 0.868727 0.923872 -0.271147
C143  C     C_R   0.138079 0.223250 0.807681 -0.271223
C144  C     C_R   0.861177 0.781300 0.192408 -0.276570
C145  C     C_R   0.335471 0.766354 0.134891 0.096447
C146  C     C_R   0.665148 0.233515 0.864239 0.096534
C147  C     C_R   0.704595 0.663084 0.003467 0.097650
C148  C     C_R   0.286308 0.352677 0.987591 0.094578
C149  C     C_R   0.797124 0.165233 0.998700 0.097467
C150  C     C_R   0.204343 0.837085 0.003318 0.097494
C151  C     C_R   0.158664 0.275063 0.860034 0.093274
C152  C     C_R   0.835872 0.733131 0.135260 0.096233
C153  C     C_R   0.358166 0.790805 0.091591 0.122416
C154  C     C_R   0.642165 0.208248 0.906586 0.122239
C155  C     C_R   0.678089 0.696797 0.033771 0.129059
C156  C     C_R   0.310315 0.328873 0.945921 0.117219
C157  C     C_R   0.823761 0.199207 0.969304 0.128540
C158  C     C_R   0.177755 0.803692 0.033378 0.128717
C159  C     C_R   0.136068 0.295339 0.906037 0.120954
C160  C     C_R   0.858521 0.708354 0.091813 0.122485
C161  C     C_R   0.285562 0.786265 0.112472 0.097157
C162  C     C_R   0.715501 0.214515 0.887736 0.096333
C163  C     C_R   0.759612 0.669076 0.046212 0.080741
C164  C     C_R   0.231939 0.343290 0.948803 0.084739
C165  C     C_R   0.741936 0.170278 0.954438 0.080930
C166  C     C_R   0.259362 0.830864 0.046256 0.080852
C167  C     C_R   0.205062 0.302631 0.876697 0.082476
C168  C     C_R   0.785912 0.713616 0.112707 0.097160
C169  C     C_R   0.742854 0.243721 0.855610 -0.236834
C170  C     C_R   0.258309 0.757573 0.145153 -0.234182
C171  C     C_R   0.204823 0.368085 0.984535 -0.209611
C172  C     C_R   0.788037 0.637448 0.017711 -0.211100
C173  C     C_R   0.287875 0.862239 0.018085 -0.211361
C174  C     C_R   0.713322 0.138028 0.981619 -0.211480
C175  C     C_R   0.758732 0.742613 0.145629 -0.233146
C176  C     C_R   0.228283 0.286818 0.830050 -0.208872
C177  C     C_R   0.795802 0.234689 0.894311 -0.197658
C178  C     C_R   0.205617 0.767594 0.107642 -0.200629
C179  C     C_R   0.157084 0.344793 0.962268 -0.173990
C180  C     C_R   0.836460 0.657686 0.039029 -0.179074
C181  C     C_R   0.336246 0.841595 0.039234 -0.178897
C182  C     C_R   0.664423 0.157607 0.959146 -0.178865
C183  C     C_R   0.706021 0.732979 0.108088 -0.201517
C184  C     C_R   0.280148 0.300666 0.864266 -0.172010
H65   H     H_    0.815659 0.260001 0.870119 0.142059
H66   H     H_    0.185778 0.742589 0.132146 0.141546
H67   H     H_    0.138757 0.362483 0.994792 0.136004
H68   H     H_    0.855120 0.635762 0.009723 0.135710
H69   H     H_    0.354962 0.863294 0.010109 0.135768
H70   H     H_    0.645544 0.135266 0.987517 0.135815
H71   H     H_    0.686237 0.758244 0.132752 0.141344
H72   H     H_    0.298316 0.284699 0.831220 0.131271
H73   H     H_    0.650388 0.295853 0.762658 0.129174
H74   H     H_    0.350446 0.704614 0.237326 0.130091
H75   H     H_    0.301391 0.398127 0.104110 0.130086
H76   H     H_    0.692451 0.602815 0.900289 0.132418
H77   H     H_    0.192363 0.896871 0.900227 0.132367
H78   H     H_    0.808957 0.105509 0.101649 0.132604
H79   H     H_    0.850969 0.795025 0.238067 0.130400
H80   H     H_    0.153246 0.207409 0.769840 0.133862
H81   H     H_    0.416327 0.779563 0.060392 0.176281
H82   H     H_    0.583092 0.217927 0.935962 0.175789
H83   H     H_    0.603765 0.726190 0.007518 0.179700
H84   H     H_    0.382627 0.308870 0.957291 0.177166
H85   H     H_    0.898149 0.229612 0.997559 0.179639
H86   H     H_    0.103375 0.774654 0.006638 0.179944
H87   H     H_    0.079267 0.278416 0.938464 0.176788
H88   H     H_    0.916793 0.718887 0.060866 0.175899
H89   H     H_    0.725424 0.276332 0.803300 0.120695
H90   H     H_    0.275530 0.724512 0.196833 0.120094
H91   H     H_    0.220255 0.404466 0.031622 0.129254
H92   H     H_    0.772848 0.598701 0.975202 0.130219
H93   H     H_    0.272767 0.901072 0.975923 0.130240
H94   H     H_    0.728689 0.099286 0.023940 0.130449
H95   H     H_    0.776024 0.775648 0.197506 0.119921
H96   H     H_    0.207805 0.262200 0.768495 0.133424
N33   N     N_R   0.545129 0.325236 0.868797 0.223612
O1    O     O_R   0.555739 0.380455 0.896218 -0.389776
O2    O     O_R   0.507605 0.297900 0.868538 -0.389335
N34   N     N_R   0.453512 0.671997 0.127669 0.223589
O3    O     O_R   0.490625 0.698559 0.125779 -0.387815
O4    O     O_R   0.442582 0.616496 0.101828 -0.391449
N35   N     N_R   0.451257 0.333464 0.124960 0.217742
O5    O     O_R   0.476753 0.341990 0.087320 -0.369056
O6    O     O_R   0.472942 0.301974 0.197336 -0.433781
N36   N     N_R   0.539927 0.688454 0.843847 0.216435
O7    O     O_R   0.521568 0.710935 0.765651 -0.435441
O8    O     O_R   0.511194 0.690291 0.876483 -0.390598
N37   N     N_R   0.039769 0.811956 0.842842 0.216347
O9    O     O_R   0.010871 0.810425 0.875158 -0.391880
O10   O     O_R   0.021610 0.789295 0.764668 -0.434146
N38   N     N_R   0.961530 0.192261 0.161628 0.217272
O11   O     O_R   0.979673 0.213346 0.240658 -0.432903
O12   O     O_R   0.990508 0.195183 0.129548 -0.390750
N39   N     N_R   0.954239 0.826224 0.128845 0.223288
O13   O     O_R   0.943240 0.881596 0.102569 -0.393925
O14   O     O_R   0.991521 0.799271 0.127500 -0.388970
N40   N     N_R   0.045061 0.171669 0.868412 0.222305
O15   O     O_R   0.006180 0.195848 0.867875 -0.391022
O16   O     O_R   0.058715 0.116991 0.896769 -0.392544

loop_
_geom_bond_atom_site_label_1
_geom_bond_atom_site_label_2
_geom_bond_distance
_ccdc_geom_bond_type
C141  H78   1.072340 S    
N21   Ni4   1.870196 S    
C34   C116  1.483224 S    
C138  H73   1.073108 S    
C170  C178  1.383008 A    
C103  H55   1.083863 S    
C21   N21   1.335504 A    
C31   H31   1.077277 S    
C38   C120  1.474958 S    
N37   O9    1.301244 A    
C2    C34   1.391585 A    
C99   C111  1.397041 A    
C28   C34   1.396091 A    
C14   H14   1.074055 S    
C90   C105  1.399671 A    
N34   O3    1.301262 A    
C24   N24   1.341916 A    
C126  C134  1.395172 A    
C3    N3    1.333530 A    
N29   Ni8   1.847571 S    
C4    H4    1.078914 S    
C75   C83   1.410197 A    
C5    H5    1.078528 S    
C49   C57   1.404582 A    
C7    H7    1.080363 S    
C8    H8    1.080800 S    
C10   C42   1.382842 A    
C69   H45   1.081790 S    
N32   Ni8   1.840738 S    
C25   H25   1.079152 S    
C67   H43   1.082527 S    
C111  H63   1.083623 S    
C5    C37   1.389386 A    
N36   O7    1.301319 A    
N13   N21   1.375191 A    
N26   Ni5   1.847571 S    
C137  C145  1.393620 A    
C9    C41   1.378780 A    
C113  C129  1.416156 A    
N40   O15   1.301304 A    
C26   C36   1.402527 A    
C11   H11   1.073948 S    
C141  C149  1.398906 A    
C12   N12   1.340675 A    
C117  C133  1.415527 A    
C161  C166  1.419491 A    
C174  H94   1.077502 S    
C51   C91   1.376169 A    
C163  C168  1.419775 A    
C22   N22   1.333732 A    
C49   C89   1.393514 A    
C184  H72   1.074727 S    
C8    C40   1.379954 A    
N15   N23   1.375188 A    
C92   C107  1.402058 A    
C151  C159  1.414617 A    
C152  C160  1.412629 A    
C29   C39   1.401339 A    
C125  C133  1.396186 A    
C58   C66   1.404643 A    
C147  C163  1.423697 A    
C148  C156  1.411421 A    
N35   O6    1.301506 A    
C13   C45   1.385662 A    
C23   C47   1.394085 A    
N6    N32   1.395591 A    
N38   O11   1.301489 A    
C103  C107  1.392258 A    
C137  H74   1.073554 S    
N22   Ni3   1.870197 S    
C122  H82   1.084210 S    
N5    N31   1.395589 A    
C119  C143  1.403022 A    
C26   N26   1.337113 A    
C121  C129  1.403016 A    
C32   H32   1.079005 S    
C119  C135  1.417270 A    
C39   C117  1.470471 S    
C104  H56   1.081946 S    
C12   C44   1.391370 A    
C87   C95   1.407612 A    
C88   C96   1.410703 A    
N14   N22   1.375190 A    
C3    H3    1.078859 S    
N11   Ni6   1.841006 S    
C4    N4    1.334066 A    
C57   C65   1.404454 A    
C180  H68   1.084035 S    
C19   C43   1.385564 A    
N33   O1    1.301397 A    
C102  H54   1.083929 S    
C149  C157  1.416406 A    
C23   N23   1.342335 A    
C175  C183  1.383123 A    
N18   Ni1   1.870197 S    
N1    N27   1.395589 A    
N1    Ni1   1.869641 S    
C166  C173  1.416880 A    
C30   N30   1.335970 A    
N4    Ni1   1.867355 S    
C50   H34   1.081394 S    
C162  C169  1.415806 A    
C17   H17   1.080076 S    
C52   C60   1.407133 A    
C145  C161  1.419968 A    
C81   C86   1.399428 A    
C54   H38   1.079995 S    
N28   Ni6   1.840738 S    
C20   H20   1.076370 S    
C21   H21   1.078863 S    
C178  H66   1.084635 S    
C78   C86   1.411312 A    
C142  H77   1.072468 S    
C183  H71   1.084643 S    
C23   H23   1.080168 S    
C24   H24   1.080121 S    
C171  C179  1.389049 A    
C27   N27   1.335539 A    
C132  N35   1.434779 S    
C6    C38   1.383144 A    
C36   C114  1.475087 S    
C7    C39   1.381821 A    
C98   C110  1.392328 A    
C24   C48   1.393652 A    
N16   N24   1.375190 A    
C40   C118  1.469881 S    
C170  H90   1.075138 S    
C139  C147  1.399458 A    
C30   C40   1.399451 A    
C136  N39   1.434396 S    
C115  C131  1.415219 A    
C85   C93   1.406670 A    
C52   H36   1.079764 S    
C139  H76   1.072428 S    
C172  C180  1.389104 A    
C83   C91   1.410259 A    
C173  C181  1.389047 A    
C55   H39   1.081348 S    
N7    N29   1.395580 A    
C32   C38   1.402378 A    
C56   H40   1.082813 S    
C22   C46   1.385466 A    
C79   C87   1.409205 A    
C133  N38   1.436285 S    
C53   C93   1.387561 A    
C6    H6    1.078918 S    
C18   N18   1.323901 A    
C95   C112  1.399659 A    
C135  N40   1.434436 S    
C96   C111  1.402556 A    
N14   Ni8   1.847919 S    
C19   N19   1.334208 A    
C120  C136  1.416076 A    
C148  C164  1.424542 A    
C156  C184  1.388099 A    
C157  C177  1.387330 A    
N15   Ni8   1.841006 S    
C13   H13   1.073677 S    
C10   N10   1.337479 A    
C127  C159  1.399770 A    
C128  C160  1.402779 A    
N39   O14   1.301196 A    
C82   C90   1.407518 A    
C162  C165  1.419270 A    
C123  C131  1.395275 A    
C124  C156  1.399397 A    
C47   C62   1.468520 S    
C125  C157  1.399183 A    
C1    N1    1.333533 A    
C50   C90   1.393026 A    
N2    N28   1.395591 A    
C74   C98   1.400824 A    
C72   C80   1.373403 A    
N20   Ni2   1.867701 S    
C66   C74   1.390096 A    
C7    N7    1.331682 A    
C71   C79   1.389948 A    
C8    N8    1.332691 A    
C114  C138  1.394943 A    
C59   C67   1.403982 A    
C3    C35   1.382207 A    
C104  C108  1.382451 A    
C150  C158  1.416666 A    
N11   N19   1.375188 A    
C169  H89   1.075224 S    
C15   C47   1.378615 A    
C31   C37   1.402559 A    
C109  H61   1.084013 S    
N9    Ni5   1.847919 S    
C13   N13   1.321992 A    
C9    H9    1.078997 S    
C129  N34   1.434573 S    
C126  C158  1.398600 A    
C123  H83   1.084620 S    
N5    Ni3   1.869641 S    
C28   H28   1.079410 S    
N36   O8    1.301218 A    
C14   C46   1.391277 A    
C93   C110  1.402113 A    
C65   C73   1.390142 A    
C55   C63   1.404029 A    
C56   C64   1.403985 A    
N40   O16   1.301497 A    
C112  H64   1.074099 S    
C6    N6    1.334250 A    
C27   C33   1.398682 A    
C100  H52   1.083823 S    
C147  C155  1.416595 A    
N7    Ni4   1.867351 S    
C120  C144  1.394720 A    
C149  C165  1.423235 A    
N6    Ni4   1.869640 S    
N27   Ni5   1.840735 S    
C41   C60   1.467754 S    
C102  C106  1.392674 A    
N13   Ni7   1.847919 S    
N37   O10   1.301338 A    
C15   N15   1.324977 A    
C16   N16   1.325018 A    
N2    Ni2   1.869640 S    
C26   H26   1.079143 S    
C43   C58   1.468427 S    
C14   N14   1.340150 A    
N16   Ni7   1.841009 S    
C66   H42   1.080426 S    
C42   C59   1.457465 S    
C73   C97   1.400980 A    
C163  C172  1.416912 A    
C79   C103  1.400839 A    
C138  C146  1.393607 A    
C1    H1    1.080846 S    
C146  C162  1.420478 A    
C82   C85   1.399181 A    
N38   O12   1.301328 A    
N10   Ni6   1.847919 S    
C17   C41   1.393683 A    
C22   H22   1.074757 S    
N3    Ni2   1.867351 S    
C179  H67   1.084109 S    
C5    N5    1.335730 A    
C18   H18   1.079411 S    
C32   N32   1.337202 A    
C176  C184  1.387896 A    
C31   N31   1.341658 A    
C62   C70   1.402802 A    
C152  C168  1.420380 A    
C121  H81   1.084186 S    
N39   O13   1.301354 A    
C11   C43   1.390771 A    
C67   C75   1.394512 A    
C169  C177  1.383581 A    
C153  C181  1.391560 A    
C155  C183  1.386675 A    
C97   C109  1.392176 A    
C150  C166  1.423272 A    
C127  H87   1.084439 S    
C146  C154  1.412821 A    
C167  C176  1.412377 A    
C128  H88   1.084187 S    
C160  C180  1.391587 A    
C9    N9    1.325262 A    
C124  H84   1.084683 S    
C125  H85   1.084596 S    
C86   C94   1.406943 A    
C16   C48   1.378203 A    
C51   C59   1.398106 A    
C145  C153  1.412703 A    
C54   C94   1.387445 A    
C122  C130  1.402905 A    
C60   C68   1.402272 A    
C142  C150  1.399242 A    
N24   Ni4   1.867701 S    
C61   C69   1.402186 A    
N31   Ni7   1.840735 S    
C70   C78   1.393605 A    
C25   N25   1.337624 A    
N35   O5    1.301284 A    
C64   C72   1.395862 A    
C118  C142  1.396456 A    
C27   H27   1.080592 S    
C158  C178  1.386670 A    
C29   N29   1.335685 A    
C134  N37   1.435759 S    
C99   H51   1.083531 S    
C113  C137  1.394249 A    
C97   H49   1.083891 S    
N8    Ni3   1.867355 S    
C126  H86   1.084625 S    
C11   N11   1.339986 A    
C12   H12   1.073880 S    
C81   C89   1.407960 A    
C18   C42   1.377522 A    
C101  H53   1.083820 S    
C76   C84   1.411100 A    
C89   C106  1.400303 A    
C77   C85   1.411169 A    
C52   C92   1.387598 A    
C143  C151  1.404826 A    
C80   C88   1.406609 A    
C143  H80   1.074226 S    
C2    N2    1.339371 A    
N17   Ni2   1.870196 S    
C144  H79   1.073530 S    
C48   C61   1.467997 S    
C68   C76   1.392849 A    
C69   C77   1.392931 A    
C151  C167  1.423133 A    
C116  C140  1.405323 A    
C106  H58   1.075064 S    
C17   N17   1.341545 A    
C127  C135  1.399984 A    
C107  H59   1.083780 S    
C159  C179  1.394648 A    
C108  H60   1.084218 S    
C105  H57   1.073913 S    
C10   H10   1.080678 S    
C35   C113  1.474238 S    
C115  C139  1.396853 A    
N33   O2    1.301269 A    
C72   H48   1.080301 S    
C33   C115  1.470228 S    
C172  H92   1.077374 S    
C173  H93   1.077452 S    
C20   N20   1.333848 A    
C123  C155  1.398776 A    
C73   C81   1.409605 A    
C30   H30   1.080614 S    
C175  H95   1.075070 S    
C45   C64   1.450104 S    
C70   H46   1.081996 S    
C46   C63   1.468228 S    
C94   C109  1.402145 A    
C54   C62   1.407518 A    
C75   C99   1.402840 A    
C130  N33   1.434335 S    
C65   H41   1.080885 S    
C56   C96   1.394884 A    
C114  C130  1.416169 A    
C128  C136  1.403061 A    
C1    C33   1.380666 A    
N9    N17   1.375191 A    
C171  H91   1.078578 S    
N4    N26   1.395578 A    
C118  C134  1.415457 A    
C21   C45   1.386754 A    
C49   H33   1.081559 S    
C74   C82   1.409259 A    
N3    N25   1.395580 A    
N8    N30   1.395578 A    
C122  C154  1.402697 A    
N30   Ni7   1.847571 S    
C100  C112  1.392135 A    
C164  C167  1.420590 A    
C101  C105  1.392122 A    
C98   H50   1.083855 S    
N23   Ni3   1.867700 S    
C68   H44   1.081766 S    
C84   C92   1.406789 A    
C44   C57   1.468613 S    
C28   N28   1.331882 A    
N34   O4    1.301410 A    
C78   C102  1.399883 A    
C168  C175  1.415419 A    
C4    C36   1.383143 A    
N12   N20   1.375190 A    
C19   H19   1.074714 S    
C2    H2    1.080282 S    
C110  H62   1.083769 S    
C176  H96   1.078925 S    
C53   C61   1.407293 A    
C25   C35   1.402752 A    
C140  C148  1.401660 A    
C83   C88   1.393279 A    
C116  C132  1.416916 A    
C84   C87   1.399186 A    
C174  C182  1.388964 A    
C144  C152  1.393975 A    
C71   H47   1.080437 S    
C154  C182  1.391518 A    
N19   Ni1   1.867700 S    
C121  C153  1.402682 A    
C37   C119  1.484423 S    
C117  C141  1.396764 A    
N12   Ni5   1.841009 S    
C164  C171  1.412844 A    
C63   C71   1.404693 A    
C76   C100  1.399331 A    
C182  H70   1.084042 S    
C15   H15   1.078945 S    
C165  C174  1.416876 A    
C77   C101  1.399248 A    
C16   H16   1.078932 S    
C51   H35   1.080169 S    
C124  C132  1.397151 A    
C29   H29   1.080616 S    
C80   C104  1.393862 A    
C161  C170  1.415435 A    
N25   Ni6   1.847571 S    
C20   C44   1.385825 A    
C131  N36   1.435676 S    
C55   C95   1.393028 A    
C181  H69   1.084034 S    
C91   C108  1.397704 A    
N10   N18   1.375190 A    
C53   H37   1.079651 S    
C50   C58   1.404187 A    
C140  H75   1.070200 S    
C177  H65   1.084619 S    
