data_mof_unit_2559.cif
_audit_creation_date              2012-12-11T15:55:02-0500
_audit_creation_method            fapswitch 2.2
_symmetry_space_group_name_H-M    P1
_symmetry_Int_Tables_number       1
_space_group_crystal_system       triclinic
_cell_length_a                    17.699866
_cell_length_b                    24.464038
_cell_length_c                    15.085099
_cell_angle_alpha                 89.622884
_cell_angle_beta                  126.311918
_cell_angle_gamma                 90.639289
_cell_volume                      5263.19274335

loop_
_atom_site_label
_atom_site_type_symbol
_atom_type_description
_atom_site_fract_x
_atom_site_fract_y
_atom_site_fract_z
_atom_type_partial_charge
C1    C     C_R   0.900960 0.877440 0.091105 -0.152465
C2    C     C_R   0.939845 0.149692 0.092948 -0.164146
C3    C     C_R   0.400905 0.377355 0.090976 -0.151334
C4    C     C_R   0.437465 0.648826 0.092994 -0.164268
C5    C     C_R   0.063246 0.850936 0.907584 -0.189531
C6    C     C_R   0.053536 0.152752 0.908585 -0.164887
C7    C     C_R   0.565524 0.351603 0.907988 -0.196047
C8    C     C_R   0.553525 0.652752 0.908549 -0.163703
C9    C     C_R   0.143427 0.154026 0.092838 0.237515
C10   C     C_R   0.150771 0.848358 0.091157 0.287971
C11   C     C_R   0.643124 0.654084 0.092779 0.236767
C12   C     C_R   0.653739 0.349430 0.091863 0.305206
C13   C     C_R   0.324013 0.999499 0.280450 -0.010812
C14   C     C_R   0.824076 0.499309 0.280795 -0.007405
C15   C     C_R   0.044610 0.000821 0.721390 0.041797
C16   C     C_R   0.546029 0.501057 0.722888 0.041072
C17   C     C_R   0.132144 0.822424 0.998812 -0.003223
C18   C     C_R   0.112598 0.185321 0.999224 0.055970
C19   C     C_R   0.636512 0.324269 0.999599 -0.003215
C20   C     C_R   0.612289 0.685421 0.999212 0.054141
C21   C     C_3   0.052101 0.061814 0.492219 -0.427468
C22   C     C_3   0.965347 0.971608 0.431671 -0.396409
C23   C     C_3   0.467395 0.529634 0.432995 -0.400712
C24   C     C_3   0.555123 0.440420 0.495845 -0.423912
C25   C     C_3   0.048178 0.060933 0.590076 -0.460193
C26   C     C_3   0.966552 0.970877 0.532896 -0.435941
C27   C     C_3   0.468369 0.529803 0.534127 -0.438708
C28   C     C_3   0.549891 0.440966 0.592611 -0.460359
C29   C     C_3   0.143856 0.974544 0.552195 -0.513138
C30   C     C_3   0.644831 0.529875 0.552718 -0.511889
C31   C     C_3   0.052472 0.002513 0.456889 0.364044
C32   C     C_3   0.554558 0.499738 0.458661 0.360239
C33   C     C_3   0.055565 0.000938 0.631338 0.340569
C34   C     C_3   0.557749 0.500970 0.633297 0.331224
C35   C     C_R   0.848251 0.150556 0.909775 -0.195921
C36   C     C_R   0.807640 0.881056 0.907971 -0.068166
C37   C     C_R   0.345607 0.649526 0.909409 -0.192531
C38   C     C_R   0.307636 0.381039 0.907879 -0.068399
C39   C     C_3   0.150438 0.974255 0.661031 0.424105
C40   C     C_3   0.653432 0.528209 0.662979 0.434444
C41   C     C_3   0.771698 0.259005 0.901022 0.344005
C42   C     C_3   0.675912 0.799079 0.874404 0.362647
C43   C     C_3   0.265407 0.756063 0.899114 0.336862
C44   C     C_3   0.176553 0.298662 0.874227 0.363437
C45   C     C_3   0.198586 0.796049 0.898251 -0.486218
C46   C     C_3   0.120319 0.250667 0.874891 -0.536208
C47   C     C_3   0.705493 0.299528 0.900749 -0.550634
C48   C     C_3   0.619521 0.751198 0.875126 -0.538194
C49   C     C_3   0.364556 0.752003 0.106018 -0.513091
C50   C     C_3   0.319910 0.271471 0.063818 -0.524291
C51   C     C_3   0.869385 0.253670 0.107643 -0.513589
C52   C     C_3   0.819641 0.771409 0.063236 -0.523620
C53   C     C_3   0.727680 0.187577 0.986116 0.043254
C54   C     C_3   0.697840 0.837076 0.043672 0.021035
C55   C     C_3   0.224420 0.685209 0.988268 0.038676
C56   C     C_3   0.197232 0.337015 0.042495 0.019938
C57   C     C_3   0.813356 0.219070 0.001071 0.150469
C58   C     C_3   0.752440 0.819649 0.995518 0.112831
C59   C     C_3   0.308592 0.716880 0.000471 0.160320
C60   C     C_3   0.252516 0.319520 0.995282 0.112524
C61   C     C_3   0.196175 0.784734 0.998566 0.245183
C62   C     C_3   0.159131 0.235263 0.995154 0.175637
C63   C     C_3   0.700662 0.286912 0.999146 0.201926
C64   C     C_3   0.658868 0.735444 0.995362 0.176475
C65   C     C_3   0.298983 0.791955 0.105393 0.393818
C66   C     C_3   0.265692 0.222541 0.062555 0.375249
C67   C     C_3   0.802469 0.291365 0.109257 0.377341
C68   C     C_3   0.765342 0.722547 0.062113 0.376604
C69   C     C_3   0.159780 0.726057 0.989563 -0.588643
C70   C     C_3   0.144592 0.285962 0.044680 -0.528346
C71   C     C_3   0.662091 0.228429 0.985549 -0.559324
C72   C     C_3   0.645064 0.786053 0.045767 -0.527573
C73   C     C_3   0.461846 0.938961 0.399842 -0.429717
C74   C     C_3   0.480950 0.028228 0.331107 -0.385183
C75   C     C_3   0.962115 0.438650 0.399167 -0.419887
C76   C     C_3   0.980846 0.528332 0.331175 -0.385061
C77   C     C_R   0.753862 0.953659 0.689941 0.169283
C78   C     C_R   0.750512 0.045588 0.690651 0.188107
C79   C     C_R   0.254026 0.453630 0.689897 0.168540
C80   C     C_R   0.250568 0.545546 0.690512 0.186677
C81   C     C_3   0.565908 0.938614 0.494181 -0.388861
C82   C     C_3   0.587145 0.026121 0.424966 -0.408299
C83   C     C_3   0.066240 0.438375 0.493553 -0.394275
C84   C     C_3   0.087135 0.526032 0.424661 -0.406422
C85   C     C_3   0.444383 0.027406 0.469522 -0.415602
C86   C     C_3   0.944540 0.526752 0.469824 -0.412765
C87   C     C_3   0.425878 0.998524 0.367328 0.398080
C88   C     C_3   0.925980 0.498251 0.367317 0.385417
C89   C     C_3   0.604936 0.997838 0.528462 0.428467
C90   C     C_3   0.105135 0.497636 0.528160 0.426016
C91   C     C_3   0.548187 0.025561 0.564277 -0.391918
C92   C     C_3   0.048414 0.525147 0.564213 -0.391000
C93   C     C_R   0.037594 0.047064 0.296501 -0.149756
C94   C     C_R   0.039960 0.955347 0.300584 -0.181119
C95   C     C_R   0.539207 0.545807 0.298929 -0.150509
C96   C     C_R   0.540764 0.454152 0.299738 -0.180978
C97   C     C_R   0.811463 0.864602 0.998299 0.013219
C98   C     C_R   0.873870 0.179284 0.001723 0.127826
C99   C     C_R   0.311447 0.364529 0.998133 0.013195
C100  C     C_R   0.369619 0.677542 0.001379 0.122425
C101  C     C_R   0.706052 0.999227 0.625343 -0.167029
C102  C     C_R   0.206264 0.499150 0.625138 -0.164922
C103  C     C_R   0.045636 0.001929 0.355761 0.040827
C104  C     C_R   0.547425 0.499737 0.357074 0.040273
C105  C     C_R   0.266812 0.954164 0.248137 -0.109228
C106  C     C_R   0.268730 0.045505 0.250202 -0.129826
C107  C     C_R   0.766872 0.454042 0.249001 -0.119819
C108  C     C_R   0.768828 0.545401 0.250263 -0.128843
C109  C     C_R   0.018870 0.046481 0.752166 -0.152398
C110  C     C_R   0.018559 0.954682 0.751535 -0.164905
C111  C     C_R   0.518284 0.546658 0.751249 -0.157946
C112  C     C_R   0.520076 0.454860 0.753474 -0.163324
H1    H     H_    0.929744 0.869208 0.175871 0.102414
H2    H     H_    0.980823 0.161082 0.178551 0.089530
H3    H     H_    0.429469 0.369091 0.175639 0.100019
H4    H     H_    0.477644 0.660243 0.178574 0.091054
H5    H     H_    0.989926 0.084377 0.423802 0.167675
H6    H     H_    0.900255 0.991942 0.362794 0.164935
H7    H     H_    0.402206 0.508997 0.363858 0.166830
H8    H     H_    0.493729 0.416748 0.427830 0.163636
H9    H     H_    0.979934 0.079072 0.562420 0.169457
H10   H     H_    0.902030 0.991350 0.512449 0.160606
H11   H     H_    0.404235 0.507864 0.513554 0.164623
H12   H     H_    0.481108 0.422367 0.563984 0.168495
H13   H     H_    0.103609 0.088150 0.655955 0.168680
H14   H     H_    0.959986 0.928142 0.551697 0.176476
H15   H     H_    0.459895 0.571980 0.552515 0.161642
H16   H     H_    0.604333 0.413801 0.658764 0.170873
H17   H     H_    0.204281 0.996710 0.563356 0.138709
H18   H     H_    0.149379 0.933136 0.527494 0.170690
H19   H     H_    0.644570 0.572057 0.525685 0.179720
H20   H     H_    0.706388 0.510813 0.562873 0.137602
H21   H     H_    0.727514 0.235422 0.823109 0.084821
H22   H     H_    0.626277 0.833144 0.827422 0.072620
H23   H     H_    0.221477 0.732014 0.821803 0.077256
H24   H     H_    0.126701 0.332571 0.826736 0.072677
H25   H     H_    0.635026 0.294656 0.821124 0.151082
H26   H     H_    0.544608 0.763099 0.829162 0.162303
H27   H     H_    0.127766 0.790281 0.819548 0.134533
H28   H     H_    0.045278 0.262400 0.828316 0.162090
H29   H     H_    0.220045 0.839081 0.900137 0.219139
H30   H     H_    0.122434 0.215364 0.830398 0.184509
H31   H     H_    0.726986 0.342656 0.903086 0.183735
H32   H     H_    0.621047 0.716009 0.830128 0.181894
H33   H     H_    0.423559 0.773730 0.113344 0.181719
H34   H     H_    0.361730 0.259960 0.033745 0.194248
H35   H     H_    0.926761 0.276927 0.114121 0.176978
H36   H     H_    0.860836 0.759881 0.032343 0.194151
H37   H     H_    0.807900 0.165363 0.827225 0.143956
H38   H     H_    0.746886 0.881408 0.823609 0.150606
H39   H     H_    0.304469 0.664124 0.826775 0.145062
H40   H     H_    0.246918 0.381353 0.823496 0.149827
H41   H     H_    0.686268 0.170216 0.901259 0.067670
H42   H     H_    0.644081 0.867271 0.985252 0.118410
H43   H     H_    0.181983 0.667549 0.903631 0.068434
H44   H     H_    0.143400 0.367033 0.983517 0.118692
H45   H     H_    0.590738 0.225062 0.906259 0.170311
H46   H     H_    0.569020 0.795096 0.999269 0.192893
H47   H     H_    0.087428 0.721779 0.912149 0.172181
H48   H     H_    0.068440 0.294842 0.997587 0.194888
H49   H     H_    0.153369 0.717262 0.056908 0.189458
H50   H     H_    0.169292 0.277180 0.129288 0.196357
H51   H     H_    0.652799 0.218924 0.050472 0.182145
H52   H     H_    0.670179 0.777070 0.130425 0.196542
H53   H     H_    0.398134 0.727032 0.181518 0.149796
H54   H     H_    0.372415 0.283669 0.151030 0.139472
H55   H     H_    0.905279 0.228467 0.183012 0.158945
H56   H     H_    0.872695 0.783409 0.150448 0.139875
H57   H     H_    0.302962 0.781820 0.179431 0.025140
H58   H     H_    0.293180 0.215771 0.148782 0.125266
H59   H     H_    0.802201 0.275873 0.177761 0.085640
H60   H     H_    0.793126 0.715666 0.148466 0.124300
H61   H     H_    0.424103 0.916240 0.427206 0.155021
H62   H     H_    0.458337 0.071565 0.310234 0.160614
H63   H     H_    0.924707 0.415756 0.426771 0.155982
H64   H     H_    0.958348 0.571717 0.311122 0.160878
H65   H     H_    0.449744 0.917193 0.327940 0.156447
H66   H     H_    0.466336 0.008528 0.256057 0.168370
H67   H     H_    0.949700 0.416910 0.326897 0.199130
H68   H     H_    0.965914 0.509013 0.255666 0.167192
H69   H     H_    0.601522 0.915521 0.466007 0.175191
H70   H     H_    0.623379 0.003035 0.397062 0.149221
H71   H     H_    0.101913 0.415431 0.465286 0.179536
H72   H     H_    0.122968 0.502884 0.396304 0.149457
H73   H     H_    0.574484 0.917207 0.564686 0.162103
H74   H     H_    0.615323 0.068032 0.441635 0.171946
H75   H     H_    0.074873 0.416848 0.563973 0.163715
H76   H     H_    0.115668 0.567846 0.441396 0.171824
H77   H     H_    0.403180 0.007268 0.494903 0.160534
H78   H     H_    0.422403 0.070924 0.450977 0.154264
H79   H     H_    0.903750 0.506211 0.495382 0.160134
H80   H     H_    0.922092 0.570204 0.451623 0.154662
H81   H     H_    0.557765 0.002596 0.634260 0.144745
H82   H     H_    0.572201 0.067624 0.593893 0.180464
H83   H     H_    0.058417 0.502191 0.634441 0.144399
H84   H     H_    0.072134 0.567274 0.593507 0.180392
H85   H     H_    0.048682 0.089638 0.320120 0.086541
H86   H     H_    0.052802 0.913810 0.330760 0.093146
H87   H     H_    0.549976 0.587976 0.325254 0.084784
H88   H     H_    0.554831 0.412220 0.327437 0.099263
H89   H     H_    0.286608 0.912370 0.256985 0.110273
H90   H     H_    0.291767 0.087065 0.263760 0.127940
H91   H     H_    0.786656 0.412180 0.259603 0.134914
H92   H     H_    0.791967 0.586942 0.263636 0.127314
H93   H     H_    0.026601 0.089155 0.740296 0.097736
H94   H     H_    0.022313 0.912810 0.734547 0.104751
H95   H     H_    0.521325 0.589102 0.733476 0.111012
H96   H     H_    0.527446 0.412702 0.740465 0.096702
H97   H     H_    0.022776 0.838228 0.822589 0.106378
H98   H     H_    0.008389 0.165364 0.823434 0.101914
H99   H     H_    0.525330 0.338314 0.823363 0.109719
H100  H     H_    0.508555 0.665267 0.823329 0.103327
H101  H     H_    0.116231 0.084315 0.514631 0.156693
H102  H     H_    0.962620 0.928891 0.405067 0.153582
H103  H     H_    0.465635 0.572580 0.407145 0.157224
H104  H     H_    0.619979 0.419151 0.519727 0.158209
N1    N     N_R   0.950530 0.896220 0.057200 -0.035776
N2    N     N_R   0.950530 0.103780 0.057200 -0.047002
N3    N     N_R   0.450530 0.396220 0.057200 -0.035628
N4    N     N_R   0.450530 0.603780 0.057200 -0.046883
N5    N     N_R   0.893330 0.103780 0.942800 -0.042063
N6    N     N_R   0.893330 0.896220 0.942800 -0.041750
N7    N     N_R   0.393330 0.603780 0.942800 -0.042029
N8    N     N_R   0.393330 0.396220 0.942800 -0.041537
N9    N     N_R   0.818150 0.971400 0.792440 -0.080025
N10   N     N_R   0.818150 0.028600 0.792440 -0.081766
N11   N     N_R   0.318150 0.471400 0.792440 -0.079779
N12   N     N_R   0.318150 0.528600 0.792440 -0.081773
N13   N     N_R   0.025710 0.028600 0.207560 -0.036107
N14   N     N_R   0.025710 0.971400 0.207560 -0.034293
N15   N     N_R   0.525710 0.528600 0.207560 -0.035720
N16   N     N_R   0.525710 0.471400 0.207560 -0.033280
N17   N     N_R   0.181850 0.971400 0.207560 -0.040748
N18   N     N_R   0.181850 0.028600 0.207560 -0.042053
N19   N     N_R   0.681850 0.471400 0.207560 -0.043001
N20   N     N_R   0.681850 0.528600 0.207560 -0.041281
N21   N     N_R   0.974290 0.028600 0.792440 -0.040679
N22   N     N_R   0.974290 0.971400 0.792440 -0.044487
N23   N     N_R   0.474290 0.528600 0.792440 -0.041038
N24   N     N_R   0.474290 0.471400 0.792440 -0.043137
N25   N     N_R   0.049470 0.896220 0.942800 -0.045879
N26   N     N_R   0.049470 0.103780 0.942800 -0.047505
N27   N     N_R   0.549470 0.396220 0.942800 -0.047704
N28   N     N_R   0.549470 0.603780 0.942800 -0.048169
N29   N     N_R   0.106670 0.103780 0.057200 -0.062189
N30   N     N_R   0.106670 0.896220 0.057200 -0.045415
N31   N     N_R   0.606670 0.603780 0.057200 -0.062735
N32   N     N_R   0.606670 0.396220 0.057200 -0.047869
Ni1   Ni    Ni4+2 0.065600 0.934400 0.131190 0.212148
Ni2   Ni    Ni4+2 0.065600 0.065600 0.131190 0.201564
Ni3   Ni    Ni4+2 0.565600 0.434400 0.131190 0.210043
Ni4   Ni    Ni4+2 0.565600 0.565600 0.131190 0.201595
Ni5   Ni    Ni4+2 0.934400 0.065600 0.868810 0.193719
Ni6   Ni    Ni4+2 0.934400 0.934400 0.868810 0.201116
Ni7   Ni    Ni4+2 0.434400 0.565600 0.868810 0.193814
Ni8   Ni    Ni4+2 0.434400 0.434400 0.868810 0.200972
C113  C     C_3   0.239657 0.010008 0.747281 -0.472241
C114  C     C_3   0.257060 0.021551 0.857907 -0.861827
H105  H     H_    0.208771 0.053261 0.848864 0.263619
H106  H     H_    0.250894 0.984252 0.895235 0.260895
H107  H     H_    0.329314 0.038043 0.916326 0.255555
H108  H     H_    0.303354 0.989562 0.765687 0.192396
H109  H     H_    0.238750 0.049964 0.711368 0.201110
C115  C     C_3   0.171205 0.914373 0.709719 -0.305710
C116  C     C_3   0.107755 0.866338 0.636290 -0.978921
H110  H     H_    0.053249 0.856714 0.648351 0.239117
H111  H     H_    0.073181 0.872528 0.547644 0.260748
H112  H     H_    0.150735 0.828847 0.660736 0.273780
H113  H     H_    0.242999 0.903523 0.737291 0.197916
H114  H     H_    0.174746 0.913633 0.785294 0.182810
C117  C     C_3   0.677268 0.587019 0.717203 -0.337151
C118  C     C_3   0.628807 0.637257 0.642963 -0.981317
H115  H     H_    0.670671 0.653587 0.615523 0.259461
H116  H     H_    0.557567 0.629047 0.569015 0.263988
H117  H     H_    0.625007 0.670147 0.690451 0.267118
H118  H     H_    0.668054 0.587775 0.783429 0.189504
H119  H     H_    0.753476 0.595519 0.761507 0.194770
C119  C     C_3   0.741343 0.491565 0.746017 -0.437498
C120  C     C_3   0.760093 0.479559 0.857381 -0.907228
H120  H     H_    0.757785 0.517094 0.896388 0.268188
H121  H     H_    0.709693 0.448832 0.848646 0.259383
H122  H     H_    0.831109 0.461807 0.913848 0.251445
H123  H     H_    0.738073 0.451974 0.708420 0.202148
H124  H     H_    0.805459 0.511772 0.763341 0.187912
O1    O     O_3   0.841698 0.285354 0.898473 -0.761887
H125  H     H_    0.868902 0.315890 0.951995 0.314619
O2    O     O_3   0.712624 0.784318 0.816638 -0.781551
H126  H     H_    0.753026 0.751984 0.851935 0.321889
O3    O     O_3   0.334428 0.783049 0.895540 -0.763929
H127  H     H_    0.362173 0.813178 0.950067 0.340930
O4    O     O_3   0.213869 0.283932 0.817121 -0.780717
H128  H     H_    0.254922 0.251918 0.853278 0.319978
O5    O     O_3   0.330573 0.846011 0.113508 -0.780876
H129  H     H_    0.388454 0.850622 0.189478 0.301065
O6    O     O_3   0.284522 0.174305 0.028380 -0.760685
H130  H     H_    0.266319 0.179809 0.953087 0.315138
O7    O     O_3   0.837000 0.345532 0.135300 -0.791302
H131  H     H_    0.846808 0.358317 0.080351 0.317169
O8    O     O_3   0.783660 0.674335 0.027326 -0.762992
H132  H     H_    0.764526 0.679814 0.951624 0.315999
C121  C     C_3   0.745974 0.136263 0.058279 -0.262628
C122  C     C_3   0.801140 0.145112 0.182662 -0.915740
H133  H     H_    0.877475 0.146132 0.223258 0.244195
H134  H     H_    0.780043 0.182701 0.202872 0.247267
H135  H     H_    0.787889 0.109947 0.218826 0.241723
H136  H     H_    0.676398 0.118811 0.028713 0.174311
H137  H     H_    0.780318 0.103804 0.043052 0.185090
C123  C     C_3   0.758339 0.866149 0.157326 -0.319441
C124  C     C_3   0.699644 0.888520 0.192966 -0.935195
H138  H     H_    0.644275 0.916007 0.128673 0.260404
H139  H     H_    0.666493 0.855075 0.209159 0.261834
H140  H     H_    0.745678 0.912371 0.270123 0.247801
H141  H     H_    0.811909 0.837965 0.221765 0.185809
H142  H     H_    0.794633 0.902094 0.152896 0.192061
C125  C     C_3   0.244772 0.634247 0.062008 -0.254764
C126  C     C_3   0.301276 0.643845 0.186402 -0.917398
H143  H     H_    0.377475 0.642697 0.226151 0.243047
H144  H     H_    0.283636 0.682891 0.206586 0.250197
H145  H     H_    0.286032 0.610192 0.223594 0.242833
H146  H     H_    0.175831 0.616444 0.034097 0.174162
H147  H     H_    0.279084 0.601885 0.046484 0.182561
C127  C     C_3   0.257027 0.366378 0.155839 -0.316880
C128  C     C_3   0.197505 0.388997 0.190136 -0.937932
H148  H     H_    0.142554 0.416499 0.125368 0.258970
H149  H     H_    0.163744 0.355678 0.205733 0.262840
H150  H     H_    0.243069 0.412907 0.267297 0.246236
H151  H     H_    0.310349 0.338302 0.220844 0.185055
H152  H     H_    0.293612 0.402210 0.151565 0.192078
C129  C     C_3   0.777117 0.906114 0.645032 -0.389310
C130  C     C_3   0.741728 0.849849 0.650876 -0.875762
H153  H     H_    0.674094 0.851327 0.639334 0.270019
H154  H     H_    0.732949 0.823010 0.586225 0.242444
H155  H     H_    0.794499 0.830476 0.731428 0.281208
H156  H     H_    0.753046 0.914865 0.559736 0.172710
H157  H     H_    0.853693 0.902203 0.691511 0.199025
C131  C     C_3   0.761742 0.099023 0.647861 -0.323113
C132  C     C_3   0.688643 0.142335 0.620044 -0.990260
H158  H     H_    0.623371 0.137214 0.535947 0.259809
H159  H     H_    0.670215 0.141128 0.678687 0.247627
H160  H     H_    0.717217 0.183578 0.623634 0.264102
H161  H     H_    0.832309 0.116361 0.711147 0.184008
H162  H     H_    0.761927 0.091534 0.575535 0.170834
C133  C     C_3   0.277466 0.406077 0.645194 -0.389636
C134  C     C_3   0.242204 0.349793 0.651142 -0.871421
H163  H     H_    0.174633 0.351218 0.639753 0.270022
H164  H     H_    0.233374 0.322962 0.586453 0.243533
H165  H     H_    0.295082 0.330449 0.731685 0.280067
H166  H     H_    0.253438 0.414775 0.559903 0.172812
H167  H     H_    0.354054 0.402223 0.691709 0.199503
C135  C     C_3   0.261687 0.599046 0.647745 -0.323653
C136  C     C_3   0.188063 0.642205 0.619001 -0.987362
H168  H     H_    0.123302 0.637132 0.534509 0.259568
H169  H     H_    0.168577 0.640814 0.676633 0.246646
H170  H     H_    0.216676 0.683535 0.623269 0.264356
H171  H     H_    0.332003 0.616581 0.711349 0.184216
H172  H     H_    0.262456 0.591543 0.575824 0.171610
C137  C     C_3   0.161169 0.175860 0.198162 -0.392925
C138  C     C_3   0.261752 0.194154 0.290451 -0.990684
H173  H     H_    0.315812 0.171937 0.290679 0.254538
H174  H     H_    0.272401 0.238430 0.285662 0.252346
H175  H     H_    0.274927 0.187213 0.371361 0.260872
H176  H     H_    0.112193 0.209741 0.178109 0.184852
H177  H     H_    0.142415 0.142988 0.233252 0.194696
C139  C     C_3   0.183006 0.819136 0.197964 -0.449811
C140  C     C_3   0.122042 0.828269 0.236362 -0.906686
H178  H     H_    0.122510 0.871901 0.254682 0.265251
H179  H     H_    0.050239 0.812600 0.173675 0.266359
H180  H     H_    0.150804 0.805000 0.313503 0.246433
H181  H     H_    0.181711 0.774408 0.186558 0.184873
H182  H     H_    0.256291 0.829858 0.265820 0.182126
C141  C     C_3   0.660496 0.675862 0.197912 -0.392316
C142  C     C_3   0.761189 0.693855 0.290507 -0.989760
H183  H     H_    0.815090 0.671899 0.290023 0.254461
H184  H     H_    0.772015 0.738203 0.286739 0.252597
H185  H     H_    0.774499 0.686314 0.371335 0.260576
H186  H     H_    0.611651 0.709836 0.177797 0.183289
H187  H     H_    0.641237 0.643053 0.232594 0.194923
C143  C     C_3   0.686397 0.319595 0.198186 -0.438661
C144  C     C_3   0.632881 0.332840 0.244929 -0.926873
H188  H     H_    0.639361 0.376741 0.264795 0.266413
H189  H     H_    0.558908 0.319612 0.186603 0.268330
H190  H     H_    0.663329 0.309689 0.322567 0.248340
H191  H     H_    0.677694 0.274935 0.182966 0.180337
H192  H     H_    0.761890 0.327123 0.263056 0.197038

loop_
_geom_bond_atom_site_label_1
_geom_bond_atom_site_label_2
_ccdc_geom_bond_type
C78   N10   A    
N29   Ni2   S    
C44   H24   S    
C137  C138  S    
C55   C59   S    
C15   C109  A    
C77   C101  A    
O4    H128  S    
N18   Ni2   S    
C132  H158  S    
C23   H103  S    
N31   Ni4   S    
C115  H113  S    
C71   H51   S    
N22   Ni6   S    
C35   N5    A    
C86   C88   S    
C8    N28   A    
C85   H77   S    
C117  C118  S    
C47   H31   S    
C45   H27   S    
C142  H183  S    
C62   C70   S    
C138  H175  S    
C26   H14   S    
C81   H73   S    
C21   H5    S    
C17   C61   S    
C19   C63   S    
C118  H115  S    
C129  H156  S    
C32   C104  S    
C79   C102  A    
C36   C97   A    
C51   C57   S    
C75   H67   S    
C78   C101  A    
N2    Ni2   S    
C42   C58   S    
C1    H1    S    
C41   O1    S    
C70   H50   S    
C73   C81   S    
C44   C46   S    
N5    Ni5   S    
N6    Ni6   S    
C71   H45   S    
C11   C20   A    
C24   H8    S    
N26   N29   A    
C130  H153  S    
C128  H148  S    
C131  C132  S    
C121  C122  S    
C126  H143  S    
C24   C32   S    
N13   N14   A    
C90   C92   S    
N11   N12   A    
C74   H66   S    
C83   H71   S    
C52   C58   S    
C14   C107  A    
C46   C62   S    
C7    C19   A    
C96   C104  A    
N23   Ni7   S    
N1    Ni1   S    
C132  H160  S    
N8    Ni8   S    
C22   H6    S    
C89   C101  S    
C113  H109  S    
C13   C106  A    
C92   H84   S    
C54   H42   S    
C60   C99   S    
N28   N31   A    
C86   H80   S    
C142  H185  S    
C48   H26   S    
C42   H22   S    
C14   C88   S    
C140  H178  S    
C2    H2    S    
C36   H38   S    
C118  H117  S    
C93   H85   S    
C120  H121  S    
C135  C136  S    
C123  H141  S    
C61   C65   S    
C117  H119  S    
N27   N32   A    
C2    N2    A    
C38   H40   S    
C143  C144  S    
C25   H9    S    
C30   H19   S    
C16   C111  A    
C53   H41   S    
C51   H55   S    
C136  H168  S    
C56   H44   S    
C93   C103  A    
C41   H21   S    
C136  H170  S    
C55   H43   S    
C21   C31   S    
C48   H32   S    
C125  H146  S    
C82   C89   S    
C126  H145  S    
C64   C68   S    
C74   H62   S    
C23   H7    S    
C91   H81   S    
C121  H137  S    
C80   C135  S    
C139  C140  S    
C113  C114  S    
C90   C102  S    
C131  H162  S    
C16   C34   S    
N3    N8    A    
C29   H17   S    
C127  H151  S    
C115  C116  S    
C112  N24   A    
C51   H35   S    
C74   C87   S    
C89   C91   S    
N17   N18   A    
C43   C59   S    
C52   H36   S    
N21   N22   A    
C29   C31   S    
C59   C100  S    
C47   H25   S    
C84   C90   S    
N20   Ni4   S    
C124  H139  S    
C117  H118  S    
C122  H134  S    
N24   Ni8   S    
C62   C66   S    
C84   H72   S    
C12   C143  S    
C37   N7    A    
C9    C137  S    
C140  H180  S    
C18   C62   S    
C144  H190  S    
C51   C67   S    
C80   C102  A    
C128  H149  S    
C139  H181  S    
C138  H174  S    
C63   C67   S    
C107  H91   S    
O5    H129  S    
C43   C45   S    
C26   C33   S    
C105  H89   S    
N19   N20   A    
C13   C87   S    
O3    H127  S    
C41   C47   S    
C42   C48   S    
C109  H93   S    
C116  H111  S    
C55   C69   S    
C10   N30   A    
C141  H186  S    
C119  H123  S    
C121  H136  S    
N14   Ni1   S    
C111  H95   S    
C94   N14   A    
N2    N5    A    
C96   H88   S    
C21   C25   S    
C115  H114  S    
C106  N18   A    
C24   C28   S    
C7    H99   S    
C110  N22   A    
N11   Ni8   S    
C11   C141  S    
C82   H70   S    
C49   C59   S    
C50   C60   S    
C22   H102  S    
C114  H105  S    
C53   C121  S    
C24   H104  S    
C135  H171  S    
C30   H20   S    
C43   O3    S    
C26   H10   S    
C69   H47   S    
C142  H184  S    
C70   H48   S    
C40   C119  S    
C3    C99   A    
C9    C18   A    
C134  H163  S    
C118  H116  S    
N26   Ni5   S    
C119  C120  S    
C6    N26   A    
C8    H100  S    
N4    N7    A    
C25   C33   S    
N30   Ni1   S    
C137  H177  S    
C108  N20   A    
C77   N9    A    
C141  H187  S    
C44   O4    S    
N23   N24   A    
C76   C84   S    
N17   Ni1   S    
C144  H188  S    
C46   H30   S    
C123  C124  S    
C130  H154  S    
C82   H74   S    
N21   Ni5   S    
C95   N15   A    
C39   C115  S    
C47   C63   S    
C48   C64   S    
C5    C17   A    
C61   C69   S    
C141  C142  S    
C126  H144  S    
C129  C130  S    
C38   N8    A    
C143  H191  S    
C25   H13   S    
C73   C87   S    
C27   H15   S    
N10   Ni5   S    
C28   H12   S    
C4    N4    A    
C130  H155  S    
C50   H54   S    
C120  H120  S    
N19   Ni3   S    
C35   C98   A    
C9    N29   A    
C42   O2    S    
C81   C89   S    
C50   H34   S    
C14   C108  A    
C127  C128  S    
C28   C34   S    
C125  C126  S    
N3    Ni3   S    
C67   O7    S    
C45   H29   S    
C15   C110  A    
C74   C82   S    
C132  H159  S    
C75   H63   S    
N25   N30   A    
C76   H64   S    
C13   C105  A    
O6    H130  S    
C53   C57   S    
C85   H78   S    
C12   N32   A    
N27   Ni8   S    
C113  H108  S    
C65   H57   S    
C77   C129  S    
O8    H132  S    
C49   H53   S    
O1    H125  S    
C55   C125  S    
N12   Ni7   S    
C10   C139  S    
O2    H126  S    
C134  H165  S    
C79   C133  S    
C72   H52   S    
C49   H33   S    
N16   Ni3   S    
C8    C20   A    
C80   N12   A    
C123  H142  S    
C94   C103  A    
C78   C131  S    
C84   H76   S    
C5    H97   S    
C16   C112  A    
C46   H28   S    
N1    N6    A    
C4    H4    S    
C54   C123  S    
C38   C99   A    
C76   H68   S    
C136  H169  S    
C23   C32   S    
C41   C57   S    
C3    H3    S    
C68   H60   S    
C75   C83   S    
C66   O6    S    
C44   C60   S    
C57   C98   S    
C133  H167  S    
C12   C19   A    
C45   C61   S    
C56   C60   S    
C3    N3    A    
C22   C26   S    
C1    N1    A    
C35   H37   S    
C52   H56   S    
C28   H16   S    
C133  C134  S    
O7    H131  S    
C81   H69   S    
C92   H83   S    
C85   C91   S    
C124  H138  S    
C122  H135  S    
C86   H79   S    
C33   C39   S    
C49   C65   S    
C34   C40   S    
C124  H140  S    
C69   H49   S    
C140  H179  S    
C144  H189  S    
C10   C17   A    
C72   H46   S    
C120  H122  S    
C139  H182  S    
C21   H101  S    
C39   C113  S    
N9    Ni6   S    
N28   Ni7   S    
C23   C27   S    
C116  H110  S    
C76   C88   S    
N13   Ni2   S    
C52   C68   S    
N32   Ni3   S    
C73   H65   S    
C64   C72   S    
C119  H124  S    
C133  H166  S    
C73   H61   S    
C83   H75   S    
C58   C97   S    
C37   H39   S    
C56   C127  S    
N15   Ni4   S    
C79   N11   A    
C85   C87   S    
C27   C34   S    
C129  H157  S    
C6    C18   A    
C68   O8    S    
C127  H152  S    
C22   C31   S    
C96   N16   A    
C112  H96   S    
C1    C97   A    
C91   H82   S    
C27   H11   S    
C67   H59   S    
C111  N23   A    
C94   H86   S    
C31   C103  S    
C20   C64   S    
C114  H106  S    
C131  H161  S    
C65   O5    S    
C106  H90   S    
C29   H18   S    
C135  H172  S    
C29   C39   S    
N9    N10   A    
C30   C40   S    
C110  H94   S    
C43   H23   S    
C50   C66   S    
C134  H164  S    
C56   C70   S    
C4    C100  A    
C114  H107  S    
C36   N6    A    
C95   C104  A    
C54   C58   S    
C40   C117  S    
C93   N13   A    
C137  H176  S    
C83   C90   S    
C107  N19   A    
C122  H133  S    
C105  N17   A    
C66   H58   S    
C63   C71   S    
C6    H98   S    
C109  N21   A    
C128  H150  S    
C11   N31   A    
N4    Ni4   S    
C108  H92   S    
C86   C92   S    
C125  H147  S    
C30   C32   S    
C37   C100  A    
C143  H192  S    
C138  H173  S    
C116  H112  S    
N7    Ni7   S    
C75   C88   S    
C54   C72   S    
C2    C98   A    
C95   H87   S    
C7    N27   A    
N15   N16   A    
N25   Ni6   S    
C5    N25   A    
C15   C33   S    
C53   C71   S    
