data_mof_unit_932.cif
_audit_creation_date              2013-03-05T15:51:39-0500
_audit_creation_method            fapswitch 2.2
_symmetry_space_group_name_H-M    P1
_symmetry_Int_Tables_number       1
_space_group_crystal_system       triclinic
_cell_length_a                    31.523984
_cell_length_b                    18.371433
_cell_length_c                    25.761158
_cell_angle_alpha                 89.091927
_cell_angle_beta                  144.382979
_cell_angle_gamma                 90.650232
_cell_volume                      8687.37054902

loop_
_atom_site_label
_atom_site_type_symbol
_atom_site_description
_atom_site_fract_x
_atom_site_fract_y
_atom_site_fract_z
_atom_type_partial_charge
Zn1   Zn    Zn3+2 1.000000 0.086750 0.293940 0.994646
Zn2   Zn    Zn3+2 1.000000 0.913250 0.706060 0.978906
Zn3   Zn    Zn3+2 1.000000 0.086750 0.706060 0.976986
Zn4   Zn    Zn3+2 1.000000 0.913250 0.293940 0.991018
Zn5   Zn    Zn3+2 0.500000 0.586750 0.293940 1.007160
Zn6   Zn    Zn3+2 0.500000 0.413250 0.706060 0.994684
Zn7   Zn    Zn3+2 0.500000 0.586750 0.706060 0.991114
Zn8   Zn    Zn3+2 0.500000 0.413250 0.293940 0.979112
Zn9   Zn    Zn3+2 0.913220 0.000000 0.119290 1.006438
Zn10  Zn    Zn3+2 0.086780 0.000000 0.880710 0.995784
Zn11  Zn    Zn3+2 0.413220 0.500000 0.119290 1.001344
Zn12  Zn    Zn3+2 0.586780 0.500000 0.880710 1.006164
Zn13  Zn    Zn3+2 0.086730 0.000000 0.292800 0.981997
Zn14  Zn    Zn3+2 0.913270 0.000000 0.707200 1.011481
Zn15  Zn    Zn3+2 0.586730 0.500000 0.292800 0.975477
Zn16  Zn    Zn3+2 0.413270 0.500000 0.707200 0.983018
O1    O     O_3   0.999990 0.000000 0.249990 -0.498372
O2    O     O_3   0.000010 0.000000 0.750010 -0.501328
O3    O     O_3   0.499990 0.500000 0.249990 -0.497139
O4    O     O_3   0.500010 0.500000 0.750010 -0.498462
O5    O     O_R   0.914560 0.853840 0.195310 -0.629838
O6    O     O_R   0.085440 0.146160 0.804690 -0.631663
O7    O     O_R   0.085440 0.853840 0.804690 -0.635809
O8    O     O_R   0.914560 0.146160 0.195310 -0.636539
O9    O     O_R   0.414560 0.353840 0.195310 -0.631221
O10   O     O_R   0.585440 0.646160 0.804690 -0.630000
O11   O     O_R   0.585440 0.353840 0.804690 -0.636566
O12   O     O_R   0.414560 0.646160 0.195310 -0.621381
O13   O     O_R   0.085440 0.146150 0.366190 -0.621843
O14   O     O_R   0.914560 0.853850 0.633810 -0.645778
O15   O     O_R   0.914560 0.146150 0.633810 -0.648721
O16   O     O_R   0.085440 0.853850 0.366190 -0.624793
O17   O     O_R   0.585440 0.646150 0.366190 -0.623923
O18   O     O_R   0.414560 0.353850 0.633810 -0.622049
O19   O     O_R   0.414560 0.646150 0.633810 -0.624768
O20   O     O_R   0.585440 0.353850 0.366190 -0.647234
O21   O     O_R   0.853820 0.085430 0.073070 -0.625445
O22   O     O_R   0.146180 0.914570 0.926930 -0.627791
O23   O     O_R   0.146180 0.085430 0.926930 -0.633072
O24   O     O_R   0.853820 0.914570 0.073070 -0.633910
O25   O     O_R   0.353820 0.585430 0.073070 -0.635195
O26   O     O_R   0.646180 0.414570 0.926930 -0.625125
O27   O     O_R   0.646180 0.585430 0.926930 -0.633834
O28   O     O_R   0.353820 0.414570 0.073070 -0.634329
O29   O     O_R   0.146150 0.914540 0.365390 -0.665238
O30   O     O_R   0.853850 0.085460 0.634610 -0.633580
O31   O     O_R   0.853850 0.914540 0.634610 -0.609392
O32   O     O_R   0.146150 0.085460 0.365390 -0.637134
O33   O     O_R   0.646150 0.414540 0.365390 -0.635823
O34   O     O_R   0.353850 0.585460 0.634610 -0.665448
O35   O     O_R   0.353850 0.414540 0.634610 -0.636443
O36   O     O_R   0.646150 0.585460 0.365390 -0.653476
O37   O     O_R   0.939240 0.000000 0.071950 -0.620036
O38   O     O_R   0.060760 0.000000 0.928050 -0.632383
O39   O     O_R   0.439240 0.500000 0.071950 -0.622405
O40   O     O_R   0.560760 0.500000 0.928050 -0.620151
O41   O     O_R   0.000020 0.939290 0.367320 -0.620607
O42   O     O_R   0.999980 0.060710 0.632680 -0.619647
O43   O     O_R   0.999980 0.939290 0.632680 -0.644925
O44   O     O_R   0.000020 0.060710 0.367320 -0.645366
O45   O     O_R   0.500020 0.439290 0.367320 -0.619720
O46   O     O_R   0.499980 0.560710 0.632680 -0.620308
O47   O     O_R   0.499980 0.439290 0.632680 -0.645417
O48   O     O_R   0.500020 0.560710 0.367320 -0.650105
O49   O     O_R   0.060680 0.000000 0.193390 -0.625370
O50   O     O_R   0.939320 0.000000 0.806610 -0.612092
O51   O     O_R   0.560680 0.500000 0.193390 -0.643551
O52   O     O_R   0.439320 0.500000 0.806610 -0.621973
C1    C     C_R   0.860128 0.860120 0.110435 0.775614
C2    C     C_R   0.139759 0.139977 0.889540 0.774859
C3    C     C_R   0.139383 0.860117 0.889937 0.791156
C4    C     C_R   0.860516 0.139972 0.109801 0.795806
C5    C     C_R   0.360280 0.359978 0.110451 0.774673
C6    C     C_R   0.639828 0.639915 0.889566 0.775508
C7    C     C_R   0.639451 0.360033 0.890164 0.794128
C8    C     C_R   0.360287 0.639866 0.109773 0.812808
C9    C     C_R   0.140607 0.139181 0.390716 0.812294
C10   C     C_R   0.861517 0.858848 0.612874 0.818044
C11   C     C_R   0.859787 0.139794 0.609070 0.805287
C12   C     C_R   0.139639 0.859631 0.388798 0.803544
C13   C     C_R   0.638584 0.641361 0.386130 0.842108
C14   C     C_R   0.359397 0.360816 0.609289 0.812300
C15   C     C_R   0.360378 0.640375 0.611224 0.803466
C16   C     C_R   0.640381 0.360508 0.391254 0.809183
C17   C     C_R   0.000205 0.001736 0.109187 0.908877
C18   C     C_R   0.999746 0.996992 0.890681 0.901093
C19   C     C_R   0.500249 0.503981 0.109451 0.896734
C20   C     C_R   0.499828 0.499340 0.890957 0.905676
C21   C     C_R   0.999964 0.999655 0.391609 0.853103
C22   C     C_R   0.999989 0.000362 0.608359 0.856665
C23   C     C_R   0.500009 0.499637 0.391640 0.850378
C24   C     C_R   0.500013 0.500343 0.608370 0.853727
C25   C     C_3   0.059359 0.964132 0.542187 -0.251510
C26   C     C_3   0.940538 0.036028 0.457766 -0.277595
C27   C     C_3   0.998917 0.930980 0.517237 -0.206003
C28   C     C_3   0.001007 0.069168 0.482733 -0.214297
C29   C     C_3   0.559320 0.463779 0.542108 -0.278195
C30   C     C_3   0.440714 0.536045 0.457879 -0.250475
C31   C     C_3   0.498738 0.430828 0.517015 -0.213601
C32   C     C_3   0.501270 0.569011 0.482956 -0.206842
C33   C     C_3   0.059624 0.033122 0.575823 0.456861
C34   C     C_3   0.940310 0.967029 0.424176 0.453022
C35   C     C_3   0.559752 0.532774 0.575902 0.451885
C36   C     C_3   0.440244 0.467059 0.424036 0.457105
H1    H     H_    0.108155 0.935230 0.576163 0.229523
H2    H     H_    0.891583 0.064977 0.423505 0.177833
H3    H     H_    0.997430 0.874214 0.531144 0.199209
H4    H     H_    0.002509 0.125923 0.468821 0.195675
H5    H     H_    0.608192 0.434678 0.576303 0.177744
H6    H     H_    0.392007 0.565100 0.423986 0.229585
H7    H     H_    0.497051 0.374078 0.530742 0.195847
H8    H     H_    0.502944 0.625772 0.469237 0.199673
C37   C     C_3   0.999928 0.000519 0.551019 -0.097663
C38   C     C_3   0.999982 0.999601 0.448934 -0.099803
C39   C     C_3   0.499970 0.500389 0.551021 -0.098598
C40   C     C_3   0.500054 0.499478 0.448966 -0.096249
H9    H     H_    0.379904 0.023600 0.630165 0.188689
H10   H     H_    0.706191 0.903595 0.309433 0.215455
H11   H     H_    0.965284 0.356394 0.784145 0.190614
H12   H     H_    0.182949 0.777320 0.255292 0.191877
H13   H     H_    0.787528 0.605712 0.689227 0.204970
H14   H     H_    0.120072 0.476339 0.369910 0.188621
H15   H     H_    0.317544 0.722922 0.745165 0.189636
H16   H     H_    0.536377 0.144916 0.215264 0.190055
C41   C     C_R   0.102209 0.294807 0.334013 0.070403
C42   C     C_R   0.871247 0.721476 0.686602 0.094867
C43   C     C_R   0.719225 0.119707 0.412696 0.119149
C44   C     C_R   0.232139 0.836122 0.573781 0.132322
C45   C     C_R   0.680231 0.732113 0.332630 0.086727
C46   C     C_R   0.397853 0.205153 0.666033 0.070991
C47   C     C_R   0.267899 0.663902 0.426300 0.131562
C48   C     C_R   0.782681 0.383251 0.586708 0.115397
C49   C     C_R   0.081817 0.367614 0.321598 0.452563
C50   C     C_R   0.861701 0.675188 0.720911 0.518847
C51   C     C_R   0.646236 0.105232 0.326161 0.461612
C52   C     C_R   0.257396 0.808058 0.646871 0.447507
C53   C     C_R   0.674848 0.792628 0.292961 0.467863
C54   C     C_R   0.418205 0.132324 0.678453 0.452675
C55   C     C_R   0.242765 0.692004 0.353313 0.448282
C56   C     C_R   0.855952 0.397349 0.672977 0.461089
C57   C     C_R   0.708240 0.857892 0.338490 -0.126919
C58   C     C_R   0.365168 0.080595 0.617875 -0.209644
C59   C     C_R   0.203214 0.756203 0.312195 -0.229392
C60   C     C_R   0.909435 0.345864 0.717434 -0.229080
C61   C     C_R   0.134830 0.419353 0.382193 -0.209814
C62   C     C_R   0.794725 0.641909 0.663196 -0.160890
C63   C     C_R   0.592039 0.155562 0.282176 -0.225982
C64   C     C_R   0.297155 0.743981 0.688157 -0.230536
C65   C     C_R   0.751005 0.862183 0.425277 -0.206018
C66   C     C_R   0.292500 0.100727 0.544705 -0.230222
C67   C     C_R   0.185108 0.791243 0.339605 -0.240390
C68   C     C_R   0.891841 0.279541 0.678835 -0.249160
C69   C     C_R   0.207504 0.399244 0.455362 -0.230260
C70   C     C_R   0.739405 0.648450 0.571590 -0.234452
C71   C     C_R   0.608844 0.221214 0.321352 -0.251048
C72   C     C_R   0.315264 0.708987 0.660736 -0.238488
C73   C     C_R   0.754743 0.803398 0.464815 0.036454
C74   C     C_R   0.270646 0.175152 0.522148 0.045750
C75   C     C_R   0.215394 0.769281 0.418161 0.032584
C76   C     C_R   0.820501 0.264577 0.590166 0.040150
C77   C     C_R   0.229383 0.324822 0.477913 0.045775
C78   C     C_R   0.746978 0.695894 0.535816 0.046916
C79   C     C_R   0.680074 0.236343 0.410171 0.035904
C80   C     C_R   0.284778 0.730832 0.582016 0.032104
C81   C     C_R   0.175249 0.270944 0.418318 0.016012
C82   C     C_R   0.808937 0.741205 0.594286 -0.016500
C83   C     C_R   0.735304 0.183078 0.459197 0.000718
C84   C     C_R   0.237524 0.791828 0.533567 0.007042
C85   C     C_R   0.709655 0.742349 0.412674 -0.010729
C86   C     C_R   0.324796 0.229028 0.581736 0.016077
C87   C     C_R   0.262554 0.708222 0.466540 0.007300
C88   C     C_R   0.765576 0.318422 0.540878 -0.000141
C89   C     C_R   0.806451 0.801662 0.556773 -0.082881
C90   C     C_R   0.196199 0.196099 0.443318 -0.110194
C91   C     C_R   0.199156 0.806906 0.448548 -0.096446
C92   C     C_R   0.804154 0.196562 0.551135 -0.081894
C93   C     C_R   0.303832 0.303880 0.556729 -0.110084
C94   C     C_R   0.698022 0.694675 0.444658 -0.096872
C95   C     C_R   0.696253 0.304198 0.449310 -0.082923
C96   C     C_R   0.300918 0.693142 0.551547 -0.096337
H17   H     H_    0.781955 0.911335 0.461477 0.149947
H18   H     H_    0.255200 0.055819 0.507212 0.183987
H19   H     H_    0.148462 0.836744 0.298611 0.184121
H20   H     H_    0.936077 0.240970 0.719677 0.160468
H21   H     H_    0.244781 0.444169 0.492851 0.183969
H22   H     H_    0.691628 0.615009 0.529794 0.164986
H23   H     H_    0.564218 0.259216 0.280686 0.165334
H24   H     H_    0.352075 0.663598 0.701843 0.183544
H25   H     H_    0.861362 0.740397 0.943486 0.163290
H26   H     H_    0.125234 0.273806 0.037379 0.158072
H27   H     H_    0.155054 0.745922 0.078577 0.164340
H28   H     H_    0.829990 0.242579 0.903252 0.155224
H29   H     H_    0.375059 0.225673 0.962894 0.157597
H30   H     H_    0.638322 0.759819 0.056206 0.182170
H31   H     H_    0.669110 0.256802 0.095704 0.154386
H32   H     H_    0.332446 0.744884 0.906360 0.161895
C97   C     C_R   0.768410 0.834913 0.108453 -0.121429
C98   C     C_R   0.237675 0.158405 0.900519 -0.119172
C99   C     C_R   0.222494 0.833150 0.880803 -0.144578
C100  C     C_R   0.779359 0.168757 0.121669 -0.117046
C101  C     C_R   0.262358 0.341491 0.099456 -0.118263
C102  C     C_R   0.731543 0.665086 0.891598 -0.113097
C103  C     C_R   0.720746 0.331459 0.878526 -0.116060
C104  C     C_R   0.276122 0.666745 0.118066 -0.150608
C105  C     C_R   0.724656 0.823026 0.108432 -0.062265
C106  C     C_R   0.284995 0.166396 0.905612 -0.068457
C107  C     C_R   0.257951 0.816842 0.869939 -0.103656
C108  C     C_R   0.744436 0.185537 0.133173 -0.123882
C109  C     C_R   0.215101 0.333383 0.094456 -0.071788
C110  C     C_R   0.775224 0.677022 0.891527 -0.072954
C111  C     C_R   0.755474 0.314547 0.866778 -0.124396
C112  C     C_R   0.237335 0.680508 0.124756 -0.096909
C113  C     C_R   0.161622 0.280080 0.040807 -0.145344
C114  C     C_R   0.828001 0.730931 0.944326 -0.143205
C115  C     C_R   0.803630 0.256383 0.913163 -0.109323
C116  C     C_R   0.185361 0.735465 0.073568 -0.084278
C117  C     C_R   0.671796 0.769192 0.055517 -0.134067
C118  C     C_R   0.338547 0.219628 0.959325 -0.149502
C119  C     C_R   0.305689 0.758332 0.915805 -0.097321
C120  C     C_R   0.695682 0.243213 0.086056 -0.110642
C121  C     C_R   0.154616 0.234965 0.991202 -0.148691
C122  C     C_R   0.838356 0.772421 0.998739 -0.137377
C123  C     C_R   0.818465 0.216163 0.972969 -0.107101
C124  C     C_R   0.171710 0.776595 0.015147 -0.136438
C125  C     C_R   0.661491 0.727678 0.001154 -0.147402
C126  C     C_R   0.345498 0.264855 0.008847 -0.153901
C127  C     C_R   0.319543 0.717281 0.974440 -0.113913
C128  C     C_R   0.680525 0.283176 0.025872 -0.109243
C129  C     C_R   0.202345 0.241637 0.995624 0.078804
C130  C     C_R   0.794154 0.762040 0.999410 0.079119
C131  C     C_R   0.785105 0.232837 0.987669 0.070532
C132  C     C_R   0.210644 0.764144 0.007360 0.059871
C133  C     C_R   0.705758 0.738014 0.000571 0.081235
C134  C     C_R   0.297720 0.258270 0.004362 0.081508
C135  C     C_R   0.285600 0.733480 0.988455 0.058680
C136  C     C_R   0.714478 0.266921 0.011884 0.071433
C137  C     C_R   0.760343 0.792187 0.055461 0.057213
C138  C     C_R   0.242878 0.204340 0.949203 0.055866
C139  C     C_R   0.234106 0.790567 0.938124 0.075498
C140  C     C_R   0.766448 0.210226 0.062728 0.088567
C141  C     C_R   0.257166 0.295584 0.050766 0.055384
C142  C     C_R   0.739598 0.707844 0.944562 0.055815
C143  C     C_R   0.733444 0.289785 0.937198 0.088369
C144  C     C_R   0.264164 0.708771 0.060239 0.075461
C145  C     C_R   0.195539 0.196442 0.945166 -0.140581
C146  C     C_R   0.804313 0.803683 0.054693 -0.138283
C147  C     C_R   0.802862 0.194793 0.052070 -0.143227
C148  C     C_R   0.196100 0.804637 0.946761 -0.147867
C149  C     C_R   0.695624 0.696359 0.945315 -0.138082
C150  C     C_R   0.304509 0.303494 0.054806 -0.140647
C151  C     C_R   0.302511 0.694771 0.051923 -0.155318
C152  C     C_R   0.696981 0.305147 0.947785 -0.142720
H33   H     H_    0.808067 0.878190 0.149952 0.162629
H34   H     H_    0.197438 0.115635 0.858473 0.156642
H35   H     H_    0.186519 0.879841 0.844255 0.144833
H36   H     H_    0.815594 0.122289 0.158632 0.140114
H37   H     H_    0.302558 0.384295 0.141471 0.156451
H38   H     H_    0.691938 0.621759 0.850169 0.162034
H39   H     H_    0.684812 0.378166 0.841955 0.139936
H40   H     H_    0.314418 0.621970 0.157590 0.143958
H41   H     H_    0.731395 0.855980 0.149208 0.211507
H42   H     H_    0.280336 0.130888 0.868031 0.196330
H43   H     H_    0.248011 0.849503 0.825409 0.196441
H44   H     H_    0.755310 0.153658 0.178855 0.154102
H45   H     H_    0.219774 0.368825 0.132085 0.196587
H46   H     H_    0.768473 0.644059 0.850746 0.203098
H47   H     H_    0.744808 0.346611 0.821355 0.153887
H48   H     H_    0.247269 0.647959 0.169335 0.196205
H49   H     H_    0.111209 0.195255 0.949222 0.125232
H50   H     H_    0.881637 0.812210 0.040361 0.133302
H51   H     H_    0.855610 0.171522 0.006375 0.208742
H52   H     H_    0.130147 0.817855 0.976115 0.194117
H53   H     H_    0.618183 0.687916 0.959472 0.133704
H54   H     H_    0.388926 0.304543 0.050862 0.125446
H55   H     H_    0.356241 0.672263 0.007300 0.207935
H56   H     H_    0.642528 0.327190 0.991438 0.206695
C153  C     C_R   0.983931 0.138489 0.031584 0.323554
C154  C     C_R   0.007577 0.859554 0.959644 0.322677
C155  C     C_R   0.485255 0.641506 0.034298 0.306079
C156  C     C_R   0.518044 0.363065 0.970723 0.324033
C157  C     C_R   0.973810 0.200960 0.990843 -0.171359
C158  C     C_R   0.017086 0.796936 0.999687 -0.135309
C159  C     C_R   0.476967 0.704066 0.995203 -0.085525
C160  C     C_R   0.531277 0.301049 0.014475 -0.163665
C161  C     C_R   0.972847 0.197136 0.936267 0.173780
C162  C     C_R   0.020968 0.800705 0.057104 0.148702
C163  C     C_R   0.477476 0.700576 0.942023 0.159049
C164  C     C_R   0.535809 0.305525 0.072524 0.174749
C165  C     C_R   0.982221 0.129845 0.922444 -0.158833
C166  C     C_R   0.016164 0.868440 0.075617 -0.181345
C167  C     C_R   0.484223 0.633018 0.925347 -0.186094
C168  C     C_R   0.525084 0.372523 0.084941 -0.173534
C169  C     C_R   0.990930 0.064765 0.961263 -0.028388
C170  C     C_R   0.007843 0.933709 0.037296 -0.023124
C171  C     C_R   0.491565 0.567682 0.962621 -0.019138
C172  C     C_R   0.512173 0.437046 0.042050 -0.023009
C173  C     C_R   0.991790 0.068329 0.016577 0.005293
C174  C     C_R   0.004851 0.930030 0.979858 -0.004979
C175  C     C_R   0.492380 0.571226 0.018059 -0.013081
C176  C     C_R   0.509870 0.433264 0.985358 0.005352
C177  C     C_R   0.998424 0.996552 0.944785 -0.090523
C178  C     C_R   0.000802 0.002041 0.054284 -0.093425
C179  C     C_R   0.499427 0.499359 0.946236 -0.094986
C180  C     C_R   0.501470 0.504796 0.055438 -0.092595
H57   H     H_    0.967290 0.253423 0.002534 0.184975
H58   H     H_    0.020060 0.744245 0.984562 0.227392
H59   H     H_    0.471690 0.756675 0.008098 0.212265
H60   H     H_    0.537940 0.248703 0.002821 0.177345
H61   H     H_    0.981721 0.129233 0.879961 0.120081
H62   H     H_    0.018427 0.869125 0.119824 0.115664
H63   H     H_    0.484505 0.632514 0.883633 0.113375
H64   H     H_    0.527566 0.373001 0.129373 0.135262
Cl1   Cl    Cl    0.139470 0.077277 0.677836 -0.636070
Cl2   Cl    Cl    0.860489 0.922771 0.322439 -0.656972
Cl3   Cl    Cl    0.639699 0.576746 0.677818 -0.668313
Cl4   Cl    Cl    0.360262 0.423163 0.321871 -0.635705
C181  C     C_3   0.027884 0.731719 0.095763 -0.870618
H65   H     H_    0.030876 0.742788 0.140953 0.233322
H66   H     H_    0.980227 0.696244 0.041239 0.258597
H67   H     H_    0.077673 0.701724 0.133684 0.270468
C182  C     C_3   0.961441 0.265114 0.892794 -0.880573
H68   H     H_    0.966834 0.254175 0.856104 0.228447
H69   H     H_    0.906149 0.287323 0.845131 0.261031
H70   H     H_    0.002441 0.306655 0.944100 0.250711
C183  C     C_3   0.552187 0.239365 0.121813 -0.883497
H71   H     H_    0.507837 0.230603 0.106353 0.229736
H72   H     H_    0.557517 0.189658 0.103405 0.260067
H73   H     H_    0.604132 0.247579 0.194659 0.254188
C184  C     C_3   0.472603 0.769727 0.905395 -0.871436
H74   H     H_    0.472373 0.758886 0.862866 0.232123
H75   H     H_    0.422122 0.799736 0.865175 0.266037
H76   H     H_    0.519783 0.805069 0.961146 0.268627
Cl5   Cl    Cl    0.987472 0.155566 0.101361 -0.751121
Cl6   Cl    Cl    0.993127 0.841989 0.879556 -0.702306
Cl7   Cl    Cl    0.489593 0.659712 0.105494 -0.705707
Cl8   Cl    Cl    0.510510 0.345228 0.897245 -0.747222
C185  C     C_3   0.050826 0.250622 0.251020 -0.695366
H77   H     H_    0.081459 0.209165 0.259823 0.249134
H78   H     H_    0.007432 0.226257 0.232373 0.271421
H79   H     H_    0.024654 0.285243 0.194500 0.273070
C186  C     C_3   0.947142 0.731913 0.740101 -0.707080
H80   H     H_    0.947452 0.716477 0.698901 0.226881
H81   H     H_    0.965680 0.788626 0.761421 0.258530
H82   H     H_    0.988460 0.696914 0.800675 0.275901
C187  C     C_3   0.778119 0.072567 0.447753 -0.858009
H83   H     H_    0.821793 0.107276 0.474448 0.236380
H84   H     H_    0.800129 0.033707 0.498970 0.229601
H85   H     H_    0.758506 0.040277 0.395134 0.260986
C188  C     C_3   0.211296 0.916016 0.550924 -0.821835
H86   H     H_    0.223419 0.940882 0.524533 0.206014
H87   H     H_    0.153212 0.923355 0.503713 0.250717
H88   H     H_    0.244840 0.947832 0.611644 0.268018
C189  C     C_3   0.681017 0.657609 0.309433 -0.704799
H89   H     H_    0.723985 0.623007 0.370331 0.234551
H90   H     H_    0.627548 0.631173 0.259776 0.297333
H91   H     H_    0.695405 0.660292 0.281917 0.251245
C190  C     C_3   0.449325 0.249378 0.749022 -0.696177
H92   H     H_    0.492685 0.273689 0.767580 0.270661
H93   H     H_    0.418690 0.290862 0.740159 0.250295
H94   H     H_    0.475537 0.214847 0.805615 0.272667
C191  C     C_3   0.288583 0.583970 0.449034 -0.821992
H95   H     H_    0.346652 0.576507 0.496224 0.250487
H96   H     H_    0.276431 0.559163 0.475411 0.206125
H97   H     H_    0.254964 0.552200 0.388258 0.268108
C192  C     C_3   0.724992 0.433697 0.551020 -0.850904
H98   H     H_    0.705655 0.472743 0.501546 0.241606
H99   H     H_    0.679513 0.401685 0.522745 0.229344
H100  H     H_    0.745064 0.466259 0.603827 0.262587
Cl9   Cl    Cl    0.990531 0.397270 0.225624 -0.600169
Cl10  Cl    Cl    0.933064 0.653774 0.835228 -0.574550
Cl11  Cl    Cl    0.619021 0.024484 0.268552 -0.628297
Cl12  Cl    Cl    0.243435 0.853425 0.691995 -0.679895
Cl13  Cl    Cl    0.632393 0.787023 0.189598 -0.621789
Cl14  Cl    Cl    0.509482 0.102633 0.774408 -0.600302
Cl15  Cl    Cl    0.256624 0.646545 0.308111 -0.675057
Cl16  Cl    Cl    0.884529 0.479309 0.729578 -0.603584

loop_
_geom_bond_atom_site_label_1
_geom_bond_atom_site_label_2
_geom_bond_distance
_ccdc_geom_bond_type
C84   C91   1.420543 A    
C190  H92   1.107654 S    
C98   C106  1.393359 A    
C33   C37   1.529677 S    
C134  C150  1.415183 A    
C185  H77   1.104167 S    
C47   C87   1.442176 A    
O26   C7    1.282382 A    
C15   C96   1.457919 S    
C13   C94   1.468139 S    
C170  C174  1.406773 A    
O30   C11   1.280409 A    
C163  C184  1.502894 S    
C127  H55   1.070630 S    
Zn12  O26   1.941601 S    
C114  C122  1.391654 A    
C73   C85   1.410625 A    
C36   C40   1.529698 S    
C97   C137  1.417523 A    
C74   C90   1.423687 A    
C48   C192  1.517962 S    
C155  C159  1.394919 A    
C63   C71   1.381563 A    
C130  C146  1.415445 A    
C27   C34   1.541274 S    
Zn3   O15   1.939408 S    
C59   C67   1.384499 A    
C28   H4    1.110171 S    
C100  C108  1.391363 A    
C28   C38   1.543096 S    
O11   C7    1.291685 A    
C189  H90   1.099447 S    
C103  H39   1.080917 S    
O34   C15   1.265185 A    
C50   C62   1.392065 A    
C191  H97   1.110075 S    
C131  C147  1.420018 A    
C80   C84   1.415340 A    
Zn14  O30   1.936292 S    
Zn1   O44   1.942087 S    
C25   C33   1.542760 S    
Zn2   O43   1.942087 S    
C171  C175  1.409858 A    
C165  C169  1.424094 A    
Zn5   O48   1.942087 S    
C69   C77   1.423834 A    
C139  C148  1.412076 A    
Zn6   O47   1.942087 S    
C181  H67   1.109558 S    
C167  C171  1.422963 A    
C116  C124  1.392645 A    
Zn7   O46   1.956787 S    
C123  H51   1.070224 S    
C34   C38   1.529491 S    
H27   C116  1.082491 S    
O16   C12   1.284398 A    
C62   C70   1.389021 A    
Zn16  O4    1.946854 S    
C104  C112  1.392728 A    
Zn1   O13   1.938206 S    
C76   C88   1.418917 A    
C187  H85   1.107334 S    
C26   C28   1.552650 S    
Zn4   O16   1.939409 S    
O41   C21   1.282659 A    
Zn5   O3    1.969373 S    
C88   C95   1.426075 A    
C190  H94   1.111149 S    
C36   Cl4   1.779444 S    
C49   C61   1.379357 A    
C77   C93   1.423667 A    
C7    C152  1.458210 S    
C46   C54   1.405835 A    
C185  H79   1.111151 S    
Zn6   O4    1.969374 S    
C142  C149  1.415446 A    
C125  H53   1.081335 S    
C74   C86   1.414009 A    
Zn16  O34   1.936292 S    
C164  C183  1.501876 S    
Zn10  O22   1.941601 S    
C158  H58   1.082146 S    
H9    C58   1.083416 S    
C71   H23   1.080243 S    
C192  H98   1.108281 S    
O25   C8    1.283603 A    
Zn13  O29   1.936294 S    
C99   H35   1.081116 S    
C34   Cl2   1.777793 S    
Zn10  O2    1.960812 S    
C138  C145  1.414985 A    
O29   C12   1.265149 A    
C25   C38   1.538344 S    
Zn15  O33   1.936294 S    
C157  H57   1.084532 S    
C2    C145  1.459615 S    
C45   C53   1.412605 A    
C42   C50   1.413399 A    
C182  H68   1.109342 S    
C153  Cl5   1.741509 S    
O37   C17   1.271595 A    
C48   C88   1.448489 A    
O48   C23   1.276494 A    
C155  Cl7   1.762143 S    
C118  C126  1.393113 A    
C77   C81   1.413894 A    
C188  H86   1.107067 S    
C79   C83   1.417157 A    
Zn16  O35   1.949834 S    
C154  C174  1.432337 A    
C70   H22   1.080969 S    
C105  C117  1.387529 A    
Zn7   O10   1.948375 S    
O33   C16   1.278394 A    
C128  H56   1.071073 S    
C134  C138  1.414675 A    
O40   C20   1.272169 A    
C52   Cl12  1.763669 S    
C102  C142  1.417490 A    
C161  C165  1.391307 A    
C155  C175  1.438389 A    
C23   C40   1.475611 S    
C183  H72   1.110763 S    
C133  C137  1.414441 A    
C55   C59   1.383512 A    
C156  Cl8   1.741752 S    
Zn5   O17   1.938206 S    
C140  C147  1.412735 A    
C175  C180  1.421542 A    
C176  C179  1.424558 A    
C129  C145  1.414840 A    
C98   H34   1.081718 S    
Zn15  O51   1.952803 S    
C25   C27   1.552223 S    
C184  H75   1.109476 S    
C103  C111  1.391402 A    
O28   C5    1.276669 A    
C136  C152  1.419606 A    
C101  C109  1.393415 A    
C26   C37   1.538622 S    
H30   C117  1.081551 S    
C186  H81   1.100544 S    
C165  H61   1.081886 S    
Zn8   O3    1.940121 S    
C167  H63   1.082019 S    
C168  C172  1.424730 A    
C154  Cl6   1.748691 S    
C192  H100  1.107486 S    
O38   C18   1.272063 A    
C50   Cl10  1.760763 S    
C71   C79   1.416799 A    
C81   C90   1.429203 A    
O5    C1    1.278658 A    
C132  C148  1.417026 A    
C67   C75   1.418176 A    
O32   C9    1.280588 A    
C41   C81   1.439769 A    
C130  C142  1.414367 A    
C29   H5    1.110245 S    
C173  C178  1.424432 A    
C182  H70   1.109955 S    
C31   H7    1.110174 S    
C111  H47   1.082711 S    
Zn11  O28   1.937750 S    
C26   C34   1.542773 S    
C52   C64   1.383602 A    
C100  H36   1.080847 S    
C188  H88   1.110095 S    
C51   C63   1.383107 A    
C79   C95   1.421297 A    
C33   Cl1   1.779442 S    
C166  H62   1.081892 S    
C169  C177  1.411753 A    
C6    C149  1.459578 S    
O8    C4    1.292167 A    
C171  C179  1.417401 A    
C172  C180  1.412191 A    
C166  C170  1.424705 A    
C11   C92   1.458571 S    
C70   C78   1.411952 A    
C12   C91   1.458177 S    
C99   C139  1.420419 A    
O50   C18   1.270143 A    
C67   H19   1.076577 S    
C126  H54   1.081921 S    
C57   C65   1.387411 A    
Zn1   O1    1.969373 S    
C126  C134  1.417720 A    
Zn13  O1    1.946853 S    
Zn2   O14   1.938206 S    
C60   C68   1.381085 A    
C160  H60   1.084138 S    
C30   C39   1.538332 S    
C105  H41   1.081449 S    
C17   C178  1.429628 S    
O9    C5    1.278426 A    
O39   C19   1.271126 A    
O36   C13   1.275616 A    
H26   C113  1.081441 S    
C101  H37   1.081711 S    
C78   C94   1.416123 A    
C47   C55   1.409262 A    
O13   C9    1.286870 A    
H15   C64   1.082822 S    
C122  C130  1.418232 A    
Zn1   O8    1.937478 S    
C110  H46   1.081413 S    
C162  C181  1.502956 S    
Zn2   O7    1.937475 S    
H13   C62   1.083130 S    
Zn3   O6    1.948375 S    
O18   C14   1.286814 A    
O31   C10   1.289418 A    
O6    C2    1.278295 A    
O51   C19   1.269238 A    
C117  C125  1.391750 A    
C30   H6    1.108607 S    
C144  C151  1.415332 A    
C192  H99   1.108375 S    
C97   C105  1.393582 A    
C32   C40   1.542646 S    
H10   C57   1.082661 S    
H32   C119  1.082618 S    
C189  H89   1.110400 S    
C133  C149  1.415475 A    
C66   H18   1.073744 S    
Zn15  O3    1.946853 S    
C191  H96   1.107072 S    
Zn11  O3    1.960812 S    
C9    C90   1.463951 S    
C75   C87   1.415215 A    
C164  C168  1.389036 A    
C43   C51   1.414166 A    
C53   C57   1.389204 A    
C44   C52   1.409313 A    
C31   C39   1.543084 S    
C45   C189  1.510600 S    
C120  C128  1.392336 A    
Zn8   O20   1.939409 S    
C181  H66   1.109315 S    
C98   C138  1.416985 A    
C185  H78   1.107702 S    
C78   C82   1.412886 A    
C113  C121  1.392581 A    
C10   C89   1.460680 S    
C187  H84   1.106752 S    
H28   C115  1.082484 S    
C80   C96   1.424431 A    
C55   Cl15  1.763653 S    
C31   C36   1.541677 S    
C190  H93   1.103755 S    
C28   C33   1.541667 S    
C65   H17   1.079061 S    
H11   C60   1.083531 S    
H12   C59   1.082807 S    
C3    C148  1.455068 S    
C104  C144  1.419343 A    
C123  C131  1.414822 A    
C72   H24   1.076739 S    
C157  C161  1.384293 A    
C162  C166  1.392615 A    
C86   C93   1.429372 A    
C159  C163  1.385554 A    
O7    C3    1.288282 A    
C160  C164  1.385506 A    
C99   C107  1.391534 A    
C54   C58   1.379380 A    
O19   C15   1.284218 A    
C56   Cl16  1.762965 S    
Zn9   O24   1.937750 S    
Zn6   O18   1.938206 S    
Zn10  O23   1.937748 S    
C174  C177  1.422637 A    
C44   C188  1.515988 S    
C16   C95   1.455564 S    
C35   C39   1.529412 S    
C100  C140  1.420261 A    
C129  C141  1.414606 A    
Zn15  O36   1.949833 S    
C29   C40   1.538639 S    
O15   C11   1.268780 A    
O42   C22   1.282181 A    
C27   H3    1.110188 S    
C161  C182  1.501424 S    
Zn4   O1    1.940121 S    
C32   H8    1.110184 S    
C30   C32   1.552226 S    
Zn9   O37   1.945884 S    
Zn8   O9    1.948377 S    
O12   C8    1.292353 A    
C189  H91   1.109877 S    
Zn11  O39   1.945884 S    
C153  C157  1.395063 A    
C21   C38   1.476284 S    
C82   C89   1.420732 A    
C66   C74   1.423762 A    
C46   C190  1.499562 S    
C132  C144  1.412585 A    
C135  C139  1.410563 A    
C141  C150  1.415055 A    
C56   C60   1.382501 A    
C42   C82   1.428035 A    
C54   Cl14  1.765224 S    
C42   C186  1.515669 S    
C48   C56   1.414197 A    
C107  H43   1.082683 S    
C108  H44   1.082719 S    
C125  C133  1.418301 A    
C58   C66   1.383538 A    
C102  H38   1.081364 S    
C104  H40   1.080875 S    
C46   C86   1.439999 A    
C14   C93   1.463871 S    
C137  C146  1.415680 A    
C32   C35   1.541263 S    
C169  C173  1.405578 A    
C183  H71   1.109425 S    
C24   C39   1.476249 S    
C109  C113  1.388679 A    
C170  C178  1.413638 A    
Zn3   O42   1.956787 S    
C1    C146  1.459727 S    
C172  C176  1.404913 A    
Zn7   O4    1.940120 S    
O21   C4    1.282372 A    
C121  C129  1.417534 A    
C64   C72   1.384410 A    
C119  C127  1.392821 A    
C8    C151  1.461719 S    
C65   C73   1.410860 A    
H16   C63   1.083404 S    
C73   C89   1.410866 A    
C108  C120  1.386115 A    
C111  C115  1.386105 A    
C68   C76   1.415871 A    
Zn2   O2    1.969374 S    
C184  H74   1.110867 S    
Zn14  O2    1.946854 S    
C135  C151  1.420490 A    
C35   Cl3   1.777727 S    
Zn13  O49   1.952803 S    
O44   C21   1.276375 A    
C106  C118  1.388700 A    
C106  H42   1.082150 S    
C168  H64   1.082139 S    
C4    C147  1.459032 S    
C45   C85   1.430491 A    
O20   C16   1.269279 A    
Zn12  O27   1.937748 S    
C124  C132  1.416687 A    
C30   C36   1.542777 S    
H14   C61   1.083415 S    
C103  C143  1.420381 A    
C101  C141  1.417039 A    
Zn3   O2    1.940120 S    
C22   C37   1.475565 S    
C25   H1    1.108619 S    
C112  C116  1.387566 A    
C182  H69   1.110354 S    
O46   C24   1.282677 A    
O47   C24   1.276334 A    
Zn16  O52   1.952806 S    
C68   H20   1.080312 S    
C53   Cl13  1.761687 S    
Zn8   O45   1.956787 S    
C61   C69   1.383541 A    
O27   C6    1.276389 A    
C97   H33   1.081367 S    
C188  H87   1.108964 S    
C75   C91   1.424521 A    
C47   C191  1.515965 S    
C19   C180  1.422752 S    
C76   C92   1.421496 A    
Zn12  O4    1.960812 S    
C20   C179  1.434375 S    
C102  C110  1.393347 A    
H31   C120  1.082106 S    
C29   C31   1.552622 S    
C159  H59   1.084349 S    
H29   C118  1.082144 S    
O24   C1    1.276517 A    
C124  H52   1.076449 S    
C43   C187  1.515946 S    
C51   Cl11  1.763516 S    
C110  C114  1.387459 A    
C136  C140  1.411066 A    
O43   C22   1.276476 A    
C122  H50   1.081319 S    
Zn4   O41   1.956787 S    
C183  H73   1.110431 S    
C131  C143  1.410741 A    
Zn5   O12   1.937478 S    
Zn6   O11   1.937475 S    
C18   C177  1.427746 S    
Zn9   O21   1.941601 S    
Zn14  O50   1.952806 S    
C29   C35   1.542738 S    
O35   C14   1.280619 A    
Zn12  O40   1.945882 S    
C153  C173  1.432118 A    
Zn9   O1    1.960812 S    
C158  C162  1.384340 A    
O52   C20   1.273180 A    
C184  H76   1.109512 S    
C163  C167  1.393427 A    
C87   C96   1.420334 A    
C85   C94   1.428833 A    
C121  H49   1.081914 S    
C5    C150  1.459748 S    
C186  H82   1.107974 S    
C41   C49   1.405827 A    
C41   C185  1.499436 S    
O22   C3    1.283820 A    
C26   H2    1.110266 S    
C143  C152  1.412357 A    
Zn7   O19   1.939408 S    
C156  C160  1.395735 A    
C112  H48   1.082689 S    
C115  C123  1.392344 A    
Zn13  O32   1.949833 S    
O49   C17   1.271397 A    
Zn14  O31   1.949834 S    
C127  C135  1.415132 A    
C191  H95   1.109001 S    
C107  C119  1.386246 A    
Zn4   O5    1.948377 S    
C69   H21   1.073717 S    
C27   C37   1.542630 S    
C156  C176  1.432715 A    
O10   C6    1.278689 A    
O23   C2    1.276697 A    
Zn11  O25   1.941601 S    
C181  H65   1.110843 S    
Zn10  O38   1.945882 S    
C128  C136  1.415063 A    
H25   C114  1.081394 S    
O14   C10   1.277090 A    
C72   C80   1.418226 A    
C43   C83   1.446011 A    
C154  C158  1.394569 A    
C44   C84   1.442207 A    
C186  H80   1.110603 S    
C49   Cl9   1.765216 S    
C187  H83   1.108901 S    
C109  H45   1.082141 S    
O17   C13   1.296536 A    
O45   C23   1.282190 A    
C83   C92   1.424864 A    
