data_mof_unit_444.cif
_audit_creation_date              2012-12-10T17:01:41-0500
_audit_creation_method            fapswitch 2.2
_symmetry_space_group_name_H-M    P1
_symmetry_Int_Tables_number       1
_space_group_crystal_system       triclinic
_cell_length_a                    21.974933
_cell_length_b                    21.974934
_cell_length_c                    23.687069
_cell_angle_alpha                 90.000026
_cell_angle_beta                  90.000092
_cell_angle_gamma                 89.999956
_cell_volume                      11438.431195

loop_
_atom_site_label
_atom_site_type_symbol
_atom_type_description
_atom_site_fract_x
_atom_site_fract_y
_atom_site_fract_z
_atom_type_partial_charge
C1    C     C_R   0.381390 1.000000 0.500000 0.930698
C2    C     C_R   1.000000 0.381390 0.500000 0.930696
C3    C     C_R   0.618610 1.000000 0.500000 0.930695
C4    C     C_R   1.000000 0.618610 0.499999 0.930691
C5    C     C_R   0.881390 0.500000 0.000000 0.930694
C6    C     C_R   0.500000 0.881390 0.000000 0.930695
C7    C     C_R   0.118610 0.500000 1.000000 0.930693
C8    C     C_R   0.500000 0.118610 0.000000 0.930696
C9    C     C_R   0.282363 0.954737 0.468646 -0.047026
C10   C     C_R   0.045263 0.282363 0.468647 -0.047025
C11   C     C_R   0.717637 0.045263 0.468646 -0.047025
C12   C     C_R   0.954735 0.717637 0.468646 -0.047029
C13   C     C_R   0.282363 0.045262 0.531354 -0.047024
C14   C     C_R   0.045262 0.717637 0.531353 -0.047025
C15   C     C_R   0.717637 0.954737 0.531353 -0.047026
C16   C     C_R   0.954737 0.282363 0.531353 -0.047026
C17   C     C_R   0.782363 0.454738 0.968647 -0.047026
C18   C     C_R   0.545263 0.782363 0.968647 -0.047026
C19   C     C_R   0.217637 0.545264 0.968647 -0.047027
C20   C     C_R   0.454737 0.217637 0.968647 -0.047026
C21   C     C_R   0.782363 0.545264 0.031354 -0.047027
C22   C     C_R   0.545263 0.217637 0.031353 -0.047026
C23   C     C_R   0.217637 0.454738 0.031353 -0.047025
C24   C     C_R   0.454737 0.782363 0.031353 -0.047026
C25   C     C_R   0.185652 1.000000 0.500000 -0.183856
C26   C     C_R   1.000000 0.185652 0.500000 -0.183856
C27   C     C_R   0.814348 1.000000 0.500000 -0.183857
C28   C     C_R   1.000000 0.814348 0.500000 -0.183856
C29   C     C_R   0.685652 0.500000 0.000000 -0.183855
C30   C     C_R   0.500000 0.685652 0.000000 -0.183856
C31   C     C_R   0.314348 0.500000 1.000000 -0.183856
C32   C     C_R   0.500000 0.314348 0.000000 -0.183856
C33   C     C_R   0.314345 1.000000 0.500000 -0.175983
C34   C     C_R   1.000000 0.314345 0.500000 -0.175984
C35   C     C_R   0.685655 1.000000 0.500000 -0.175984
C36   C     C_R   0.999999 0.685655 0.499999 -0.175984
C37   C     C_R   0.814345 0.500000 0.000000 -0.175984
C38   C     C_R   0.500000 0.814345 0.000000 -0.175983
C39   C     C_R   0.185655 0.500000 1.000000 -0.175984
C40   C     C_R   0.500000 0.185655 0.000000 -0.175984
C41   C     C_R   1.000000 0.118960 0.500000 0.926793
C42   C     C_R   0.881040 0.000000 0.500000 0.926790
C43   C     C_R   1.000000 0.881040 0.500000 0.926791
C44   C     C_R   0.118960 1.000000 0.500000 0.926792
C45   C     C_R   0.500000 0.618960 0.000000 0.926791
C46   C     C_R   0.381040 0.500000 1.000000 0.926791
C47   C     C_R   0.500000 0.381040 0.000000 0.926791
C48   C     C_R   0.618960 0.500000 0.000000 0.926792
C49   C     C_R   0.500000 1.000000 0.392067 0.883493
C50   C     C_R   1.000000 0.500000 0.392067 0.883485
C51   C     C_R   0.500000 0.000000 0.607933 0.883496
C52   C     C_R   1.000000 0.500000 0.607933 0.883495
C53   C     C_R   1.000000 0.500000 0.892066 0.883490
C54   C     C_R   0.500000 1.000000 0.892066 0.883494
C55   C     C_R   0.000000 0.500000 0.107933 0.883490
C56   C     C_R   0.500000 0.000000 0.107933 0.883493
C57   C     C_1   0.500000 1.000000 0.331100 -0.214435
C58   C     C_1   1.000000 0.500000 0.331100 -0.214429
C59   C     C_1   0.500000 1.000000 0.668900 -0.214437
C60   C     C_1   0.000000 0.500000 0.668900 -0.214437
C61   C     C_1   0.000000 0.500000 0.831100 -0.214431
C62   C     C_1   0.500000 0.000000 0.831100 -0.214434
C63   C     C_1   0.000000 0.500000 0.168900 -0.214435
C64   C     C_1   0.500000 1.000000 0.168900 -0.214434
C65   C     C_1   0.500000 1.000000 0.279975 -0.029793
C66   C     C_1   1.000000 0.500000 0.279975 -0.029790
C67   C     C_1   0.500000 0.000000 0.720025 -0.029794
C68   C     C_1   0.000000 0.500000 0.720025 -0.029794
C69   C     C_1   0.000000 0.500000 0.779975 -0.029790
C70   C     C_1   0.500000 0.000000 0.779975 -0.029792
C71   C     C_1   0.000000 0.500000 0.220025 -0.029794
C72   C     C_1   0.500000 1.000000 0.220025 -0.029793
C73   C     C_R   0.312778 0.911621 0.432951 0.492731
C74   C     C_R   0.088378 0.312778 0.432952 0.492732
C75   C     C_R   0.687222 0.088379 0.432952 0.492731
C76   C     C_R   0.911617 0.687223 0.432953 0.492727
C77   C     C_R   0.312778 0.088378 0.567048 0.492732
C78   C     C_R   0.088377 0.687222 0.567048 0.492733
C79   C     C_R   0.687222 0.911621 0.567048 0.492731
C80   C     C_R   0.911621 0.312778 0.567048 0.492731
C81   C     C_R   0.812778 0.411622 0.932952 0.492732
C82   C     C_R   0.588379 0.812778 0.932952 0.492731
C83   C     C_R   0.187222 0.588381 0.932952 0.492730
C84   C     C_R   0.411621 0.187222 0.932952 0.492732
C85   C     C_R   0.812777 0.588380 0.067048 0.492728
C86   C     C_R   0.588379 0.187222 0.067048 0.492732
C87   C     C_R   0.187222 0.411622 0.067048 0.492733
C88   C     C_R   0.411621 0.812778 0.067048 0.492731
C89   C     C_R   0.286192 0.854044 0.426167 -0.286355
C90   C     C_R   0.145955 0.286193 0.426168 -0.286357
C91   C     C_R   0.713807 0.145956 0.426168 -0.286356
C92   C     C_R   0.854041 0.713810 0.426168 -0.286347
C93   C     C_R   0.286193 0.145955 0.573832 -0.286358
C94   C     C_R   0.145954 0.713807 0.573832 -0.286357
C95   C     C_R   0.713808 0.854044 0.573832 -0.286355
C96   C     C_R   0.854044 0.286193 0.573832 -0.286355
C97   C     C_R   0.786193 0.354045 0.926168 -0.286355
C98   C     C_R   0.645956 0.786192 0.926168 -0.286356
C99   C     C_R   0.213808 0.645957 0.926169 -0.286352
C100  C     C_R   0.354044 0.213807 0.926168 -0.286356
C101  C     C_R   0.786191 0.645957 0.073833 -0.286351
C102  C     C_R   0.645956 0.213807 0.073832 -0.286356
C103  C     C_R   0.213807 0.354045 0.073832 -0.286357
C104  C     C_R   0.354044 0.786193 0.073832 -0.286356
C105  C     C_R   0.224975 0.847028 0.435165 -0.267743
C106  C     C_R   0.152972 0.224975 0.435166 -0.267743
C107  C     C_R   0.775024 0.152972 0.435166 -0.267744
C108  C     C_R   0.847027 0.775027 0.435166 -0.267745
C109  C     C_R   0.224976 0.152971 0.564835 -0.267743
C110  C     C_R   0.152971 0.775024 0.564834 -0.267744
C111  C     C_R   0.775025 0.847028 0.564834 -0.267742
C112  C     C_R   0.847028 0.224975 0.564834 -0.267744
C113  C     C_R   0.724976 0.347028 0.935166 -0.267744
C114  C     C_R   0.652972 0.724975 0.935166 -0.267742
C115  C     C_R   0.275025 0.652973 0.935167 -0.267744
C116  C     C_R   0.347028 0.275025 0.935166 -0.267744
C117  C     C_R   0.724974 0.652972 0.064836 -0.267744
C118  C     C_R   0.652972 0.275025 0.064834 -0.267743
C119  C     C_R   0.275024 0.347028 0.064834 -0.267744
C120  C     C_R   0.347028 0.724975 0.064834 -0.267744
C121  C     C_R   0.189550 0.897516 0.449002 0.224153
C122  C     C_R   0.102484 0.189550 0.449003 0.224154
C123  C     C_R   0.810450 0.102484 0.449002 0.224154
C124  C     C_R   0.897516 0.810451 0.449002 0.224153
C125  C     C_R   0.189551 0.102483 0.550998 0.224154
C126  C     C_R   0.102483 0.810449 0.550997 0.224154
C127  C     C_R   0.810450 0.897516 0.550997 0.224155
C128  C     C_R   0.897516 0.189550 0.550997 0.224153
C129  C     C_R   0.689550 0.397517 0.949003 0.224154
C130  C     C_R   0.602484 0.689550 0.949003 0.224154
C131  C     C_R   0.310450 0.602484 0.949003 0.224153
C132  C     C_R   0.397516 0.310450 0.949002 0.224154
C133  C     C_R   0.689549 0.602483 0.050999 0.224154
C134  C     C_R   0.602484 0.310450 0.050998 0.224154
C135  C     C_R   0.310450 0.397516 0.050997 0.224154
C136  C     C_R   0.397516 0.689550 0.050997 0.224154
C137  C     C_R   0.217893 0.951256 0.472500 -0.035724
C138  C     C_R   0.048743 0.217893 0.472501 -0.035725
C139  C     C_R   0.782107 0.048743 0.472501 -0.035725
C140  C     C_R   0.951256 0.782107 0.472500 -0.035724
C141  C     C_R   0.217893 0.048743 0.527499 -0.035725
C142  C     C_R   0.048743 0.782107 0.527499 -0.035726
C143  C     C_R   0.782107 0.951256 0.527499 -0.035725
C144  C     C_R   0.951257 0.217893 0.527499 -0.035725
C145  C     C_R   0.717893 0.451257 0.972501 -0.035725
C146  C     C_R   0.548744 0.717893 0.972501 -0.035725
C147  C     C_R   0.282107 0.548744 0.972501 -0.035725
C148  C     C_R   0.451257 0.282107 0.972501 -0.035725
C149  C     C_R   0.717893 0.548744 0.027500 -0.035726
C150  C     C_R   0.548744 0.282107 0.027499 -0.035725
C151  C     C_R   0.282107 0.451257 0.027499 -0.035725
C152  C     C_R   0.451257 0.717893 0.027499 -0.035725
Cu1   Cu    Cu3+1 0.500000 0.061820 0.500000 0.973251
Cu2   Cu    Cu3+1 0.938180 0.500000 0.500000 0.973259
Cu3   Cu    Cu3+1 0.500000 0.938180 0.500000 0.973253
Cu4   Cu    Cu3+1 0.061820 0.500000 0.500000 0.973250
Cu5   Cu    Cu3+1 0.000000 0.561820 0.000000 0.973259
Cu6   Cu    Cu3+1 0.438180 0.000000 0.000000 0.973252
Cu7   Cu    Cu3+1 0.000000 0.438180 0.000000 0.973250
Cu8   Cu    Cu3+1 0.561820 0.000000 0.000000 0.973253
Cu9   Cu    Cu3+1 1.000000 0.000000 0.555810 0.919620
Cu10  Cu    Cu3+1 0.000000 0.000000 0.444190 0.919620
Cu11  Cu    Cu3+1 0.500000 0.500000 0.055810 0.919620
Cu12  Cu    Cu3+1 0.500000 0.500000 0.944190 0.919620
H1    H     H_    0.310566 0.183624 0.592384 0.155656
H2    H     H_    0.816375 0.310564 0.592383 0.155652
H3    H     H_    0.689436 0.816375 0.592383 0.155652
H4    H     H_    0.183623 0.689434 0.592384 0.155654
H5    H     H_    0.310564 0.816375 0.407616 0.155652
H6    H     H_    0.816371 0.689440 0.407617 0.155641
H7    H     H_    0.689435 0.183625 0.407616 0.155653
H8    H     H_    0.183625 0.310565 0.407617 0.155654
H9    H     H_    0.810562 0.683626 0.092385 0.155647
H10   H     H_    0.316375 0.810564 0.092383 0.155652
H11   H     H_    0.189435 0.316376 0.092383 0.155654
H12   H     H_    0.683625 0.189436 0.092384 0.155652
H13   H     H_    0.810565 0.316376 0.907617 0.155652
H14   H     H_    0.316375 0.189435 0.907617 0.155653
H15   H     H_    0.189437 0.683627 0.907618 0.155648
H16   H     H_    0.683625 0.810564 0.907617 0.155653
H17   H     H_    0.203659 0.804670 0.422570 0.163130
H18   H     H_    0.195330 0.203659 0.422571 0.163130
H19   H     H_    0.796340 0.195330 0.422571 0.163130
H20   H     H_    0.804669 0.796344 0.422571 0.163130
H21   H     H_    0.203660 0.195329 0.577430 0.163130
H22   H     H_    0.195329 0.796339 0.577429 0.163130
H23   H     H_    0.796341 0.804670 0.577429 0.163130
H24   H     H_    0.804670 0.203659 0.577429 0.163130
H25   H     H_    0.703660 0.304670 0.922571 0.163130
H26   H     H_    0.695330 0.703659 0.922571 0.163130
H27   H     H_    0.296342 0.695330 0.922572 0.163130
H28   H     H_    0.304670 0.296341 0.922571 0.163130
H29   H     H_    0.703657 0.695330 0.077431 0.163129
H30   H     H_    0.695330 0.296341 0.077429 0.163130
H31   H     H_    0.296340 0.304670 0.077429 0.163130
H32   H     H_    0.304670 0.703659 0.077429 0.163130
O1    O     O_R   0.409810 0.052200 0.500010 -0.563916
O2    O     O_R   0.947800 0.409810 0.500010 -0.563913
O3    O     O_R   0.590190 0.947800 0.500010 -0.563913
O4    O     O_R   0.052200 0.590190 0.500010 -0.563915
O5    O     O_R   0.409810 0.947800 0.499990 -0.563913
O6    O     O_R   0.947800 0.590190 0.499990 -0.563904
O7    O     O_R   0.590190 0.052200 0.499990 -0.563913
O8    O     O_R   0.052200 0.409810 0.499990 -0.563914
O9    O     O_R   0.909810 0.552200 0.000010 -0.563907
O10   O     O_R   0.447800 0.909810 0.000010 -0.563913
O11   O     O_R   0.090190 0.447800 0.000010 -0.563916
O12   O     O_R   0.552200 0.090190 0.000010 -0.563913
O13   O     O_R   0.909810 0.447800 0.999990 -0.563914
O14   O     O_R   0.447800 0.090190 0.999990 -0.563914
O15   O     O_R   0.090190 0.552200 0.999990 -0.563909
O16   O     O_R   0.552200 0.909810 0.999990 -0.563913
O17   O     O_R   0.499980 0.052200 0.418610 -0.583387
O18   O     O_R   0.947800 0.499980 0.418610 -0.583389
O19   O     O_R   0.500020 0.947800 0.418610 -0.583388
O20   O     O_R   0.052200 0.500020 0.418610 -0.583388
O21   O     O_R   0.499980 0.947800 0.581390 -0.583387
O22   O     O_R   0.947800 0.500020 0.581390 -0.583387
O23   O     O_R   0.500020 0.052200 0.581390 -0.583387
O24   O     O_R   0.052200 0.499980 0.581390 -0.583386
O25   O     O_R   0.999980 0.552200 0.918610 -0.583388
O26   O     O_R   0.447800 0.999980 0.918610 -0.583388
O27   O     O_R   0.000020 0.447800 0.918610 -0.583388
O28   O     O_R   0.552200 0.000020 0.918610 -0.583387
O29   O     O_R   0.999980 0.447800 0.081390 -0.583388
O30   O     O_R   0.447800 0.000020 0.081390 -0.583387
O31   O     O_R   0.000020 0.552200 0.081390 -0.583387
O32   O     O_R   0.552200 0.999980 0.081390 -0.583387
O33   O     O_R   0.999980 0.090160 0.547150 -0.564779
O34   O     O_R   0.909840 0.999980 0.547150 -0.564779
O35   O     O_R   0.000020 0.909840 0.547150 -0.564779
O36   O     O_R   0.090160 0.000020 0.547150 -0.564780
O37   O     O_R   0.999980 0.909840 0.452850 -0.564778
O38   O     O_R   0.909840 0.000020 0.452850 -0.564779
O39   O     O_R   0.000020 0.090160 0.452850 -0.564779
O40   O     O_R   0.090160 0.999980 0.452850 -0.564779
O41   O     O_R   0.499980 0.590160 0.047150 -0.564779
O42   O     O_R   0.409840 0.499980 0.047150 -0.564779
O43   O     O_R   0.500020 0.409840 0.047150 -0.564779
O44   O     O_R   0.590160 0.500020 0.047150 -0.564779
O45   O     O_R   0.499980 0.409840 0.952850 -0.564779
O46   O     O_R   0.409840 0.500020 0.952850 -0.564778
O47   O     O_R   0.500020 0.590160 0.952850 -0.564779
O48   O     O_R   0.590160 0.499980 0.952850 -0.564779
O49   O     O_3   0.366998 0.927139 0.405645 -0.612388
C153  C     C_3   0.373242 0.900434 0.351372 0.047116
H33   H     H_    0.391787 0.935562 0.322560 0.151816
H34   H     H_    0.329007 0.886914 0.332043 0.135033
C154  C     C_3   0.418483 0.847092 0.353208 -0.307409
H35   H     H_    0.465676 0.864806 0.354882 0.233419
H36   H     H_    0.411354 0.819032 0.391588 0.211899
C155  C     C_3   0.412728 0.806666 0.301236 -0.969102
H37   H     H_    0.365810 0.788258 0.297596 0.257709
H38   H     H_    0.445073 0.768011 0.304524 0.257651
H39   H     H_    0.423988 0.833248 0.262943 0.253899
O50   O     O_3   0.072860 0.366997 0.405645 -0.612387
C156  C     C_3   0.099566 0.373242 0.351372 0.047116
H40   H     H_    0.064437 0.391786 0.322559 0.151815
H41   H     H_    0.113086 0.329007 0.332044 0.135032
C157  C     C_3   0.152907 0.418482 0.353208 -0.307408
H42   H     H_    0.135193 0.465676 0.354879 0.233416
H43   H     H_    0.180965 0.411355 0.391590 0.211902
C158  C     C_3   0.193336 0.412726 0.301238 -0.969106
H44   H     H_    0.211744 0.365808 0.297602 0.257709
H45   H     H_    0.231990 0.445071 0.304526 0.257652
H46   H     H_    0.166755 0.423983 0.262944 0.253899
O51   O     O_3   0.633002 0.072860 0.405645 -0.612387
C159  C     C_3   0.626758 0.099566 0.351372 0.047114
H47   H     H_    0.608213 0.064437 0.322560 0.151816
H48   H     H_    0.670992 0.113086 0.332043 0.135033
C160  C     C_3   0.581517 0.152907 0.353208 -0.307408
H49   H     H_    0.534323 0.135194 0.354881 0.233418
H50   H     H_    0.588646 0.180967 0.391588 0.211900
C161  C     C_3   0.587272 0.193334 0.301236 -0.969104
H51   H     H_    0.634190 0.211742 0.297597 0.257709
H52   H     H_    0.554927 0.231989 0.304524 0.257651
H53   H     H_    0.576013 0.166752 0.262943 0.253899
O52   O     O_3   0.927132 0.633000 0.405648 -0.612384
C162  C     C_3   0.900428 0.626757 0.351374 0.047117
H54   H     H_    0.935558 0.608210 0.322564 0.151826
H55   H     H_    0.886910 0.670991 0.332044 0.135027
C163  C     C_3   0.847085 0.581518 0.353207 -0.307407
H56   H     H_    0.864797 0.534324 0.354902 0.233439
H57   H     H_    0.819011 0.588661 0.391576 0.211871
C164  C     C_3   0.806679 0.587254 0.301220 -0.969089
H58   H     H_    0.788280 0.634173 0.297554 0.257706
H59   H     H_    0.768018 0.554917 0.304509 0.257649
H60   H     H_    0.833274 0.575970 0.262941 0.253897
O53   O     O_3   0.366997 0.072858 0.594356 -0.612389
C165  C     C_3   0.373242 0.099564 0.648628 0.047114
H61   H     H_    0.391786 0.064436 0.677441 0.151812
H62   H     H_    0.329007 0.113085 0.667957 0.135036
C166  C     C_3   0.418483 0.152905 0.646792 -0.307409
H63   H     H_    0.465677 0.135191 0.645126 0.233412
H64   H     H_    0.411359 0.180961 0.608409 0.211909
C167  C     C_3   0.412722 0.193338 0.698759 -0.969111
H65   H     H_    0.365804 0.211749 0.702390 0.257709
H66   H     H_    0.445069 0.231991 0.695472 0.257653
H67   H     H_    0.423973 0.166760 0.737056 0.253901
O54   O     O_3   0.072858 0.633002 0.594355 -0.612387
C168  C     C_3   0.099563 0.626758 0.648628 0.047115
H68   H     H_    0.064434 0.608214 0.677440 0.151813
H69   H     H_    0.113083 0.670993 0.667957 0.135039
C169  C     C_3   0.152905 0.581518 0.646793 -0.307415
H70   H     H_    0.135191 0.534324 0.645123 0.233419
H71   H     H_    0.180963 0.588644 0.608413 0.211906
C170  C     C_3   0.193333 0.587275 0.698764 -0.969120
H72   H     H_    0.211742 0.634193 0.702399 0.257711
H73   H     H_    0.231987 0.554930 0.695477 0.257654
H74   H     H_    0.166751 0.576020 0.737057 0.253905
O55   O     O_3   0.633002 0.927139 0.594355 -0.612388
C171  C     C_3   0.626759 0.900434 0.648627 0.047115
H75   H     H_    0.608214 0.935562 0.677440 0.151816
H76   H     H_    0.670993 0.886914 0.667956 0.135032
C172  C     C_3   0.581518 0.847092 0.646792 -0.307409
H77   H     H_    0.534324 0.864806 0.645118 0.233420
H78   H     H_    0.588647 0.819032 0.608412 0.211899
C173  C     C_3   0.587272 0.806666 0.698764 -0.969103
H79   H     H_    0.634190 0.788258 0.702404 0.257709
H80   H     H_    0.554928 0.768011 0.695477 0.257652
H81   H     H_    0.576012 0.833249 0.737056 0.253899
O56   O     O_3   0.927139 0.366998 0.594354 -0.612387
C174  C     C_3   0.900433 0.373242 0.648627 0.047114
H82   H     H_    0.935562 0.391787 0.677440 0.151817
H83   H     H_    0.886913 0.329008 0.667956 0.135033
C175  C     C_3   0.847092 0.418483 0.646792 -0.307409
H84   H     H_    0.864805 0.465676 0.645117 0.233420
H85   H     H_    0.819031 0.411353 0.608412 0.211899
C176  C     C_3   0.806666 0.412729 0.698764 -0.969104
H86   H     H_    0.788258 0.365811 0.702405 0.257709
H87   H     H_    0.768011 0.445073 0.695477 0.257652
H88   H     H_    0.833249 0.423989 0.737056 0.253899
O57   O     O_3   0.866997 0.427140 0.905645 -0.612387
C177  C     C_3   0.873241 0.400435 0.851372 0.047117
H89   H     H_    0.891785 0.435563 0.822560 0.151816
H90   H     H_    0.829007 0.386915 0.832044 0.135033
C178  C     C_3   0.918482 0.347093 0.853207 -0.307411
H91   H     H_    0.965676 0.364807 0.854881 0.233421
H92   H     H_    0.911353 0.319033 0.891587 0.211899
C179  C     C_3   0.912728 0.306668 0.801235 -0.969110
H93   H     H_    0.865810 0.288260 0.797595 0.257711
H94   H     H_    0.945072 0.268013 0.804523 0.257652
H95   H     H_    0.923988 0.333251 0.762943 0.253900
O58   O     O_3   0.572860 0.866998 0.905645 -0.612387
C180  C     C_3   0.599566 0.873242 0.851372 0.047114
H96   H     H_    0.564437 0.891786 0.822560 0.151816
H97   H     H_    0.613086 0.829007 0.832044 0.135033
C181  C     C_3   0.652907 0.918482 0.853208 -0.307409
H98   H     H_    0.635193 0.965676 0.854881 0.233419
H99   H     H_    0.680967 0.911354 0.891588 0.211901
C182  C     C_3   0.693334 0.912727 0.801236 -0.969106
H100  H     H_    0.711742 0.865809 0.797598 0.257709
H101  H     H_    0.731989 0.945072 0.804524 0.257652
H102  H     H_    0.666752 0.923985 0.762944 0.253900
O59   O     O_3   0.133001 0.572864 0.905647 -0.612385
C183  C     C_3   0.126757 0.599569 0.851374 0.047116
H103  H     H_    0.108213 0.564441 0.822561 0.151822
H104  H     H_    0.170992 0.613089 0.832045 0.135027
C184  C     C_3   0.081517 0.652911 0.853208 -0.307412
H105  H     H_    0.034324 0.635198 0.854890 0.233429
H106  H     H_    0.088652 0.680977 0.891584 0.211889
C185  C     C_3   0.087264 0.693330 0.801230 -0.969104
H107  H     H_    0.134182 0.711735 0.797581 0.257711
H108  H     H_    0.054922 0.731987 0.804519 0.257651
H109  H     H_    0.075995 0.666742 0.762943 0.253898
O60   O     O_3   0.427140 0.133002 0.905645 -0.612387
C186  C     C_3   0.400433 0.126758 0.851372 0.047114
H110  H     H_    0.435562 0.108215 0.822559 0.151817
H111  H     H_    0.386913 0.170993 0.832044 0.135029
C187  C     C_3   0.347092 0.081517 0.853208 -0.307408
H112  H     H_    0.364806 0.034324 0.854881 0.233418
H113  H     H_    0.319033 0.088645 0.891589 0.211900
C188  C     C_3   0.306665 0.087273 0.801237 -0.969102
H114  H     H_    0.288256 0.134190 0.797599 0.257709
H115  H     H_    0.268010 0.054927 0.804525 0.257651
H116  H     H_    0.333246 0.076014 0.762944 0.253897
O61   O     O_3   0.866999 0.572864 0.094353 -0.612386
C189  C     C_3   0.873244 0.599567 0.148627 0.047117
H117  H     H_    0.891790 0.564438 0.177436 0.151819
H118  H     H_    0.829009 0.613085 0.167957 0.135039
C190  C     C_3   0.918482 0.652910 0.146793 -0.307410
H119  H     H_    0.965676 0.635199 0.145109 0.233429
H120  H     H_    0.911346 0.680979 0.108420 0.211887
C191  C     C_3   0.912737 0.693326 0.198774 -0.969102
H121  H     H_    0.865819 0.711729 0.202426 0.257707
H122  H     H_    0.945078 0.731983 0.195487 0.257650
H123  H     H_    0.924007 0.666736 0.237059 0.253903
O62   O     O_3   0.572861 0.133002 0.094355 -0.612388
C192  C     C_3   0.599567 0.126758 0.148627 0.047116
H124  H     H_    0.564438 0.108214 0.177440 0.151816
H125  H     H_    0.613087 0.170992 0.167956 0.135032
C193  C     C_3   0.652908 0.081517 0.146792 -0.307408
H126  H     H_    0.635194 0.034323 0.145118 0.233419
H127  H     H_    0.680969 0.088646 0.108412 0.211898
C194  C     C_3   0.693334 0.087271 0.198764 -0.969103
H128  H     H_    0.711742 0.134189 0.202404 0.257709
H129  H     H_    0.731989 0.054927 0.195477 0.257651
H130  H     H_    0.666751 0.076011 0.237057 0.253898
O63   O     O_3   0.133003 0.427141 0.094355 -0.612387
C195  C     C_3   0.126759 0.400435 0.148628 0.047115
H131  H     H_    0.108215 0.435563 0.177441 0.151814
H132  H     H_    0.170993 0.386914 0.167956 0.135033
C196  C     C_3   0.081518 0.347094 0.146792 -0.307407
H133  H     H_    0.034324 0.364808 0.145122 0.233415
H134  H     H_    0.088644 0.319036 0.108410 0.211903
C197  C     C_3   0.087276 0.306664 0.198762 -0.969102
H135  H     H_    0.134193 0.288255 0.202397 0.257708
H136  H     H_    0.054930 0.268010 0.195474 0.257651
H137  H     H_    0.076020 0.333245 0.237056 0.253898
O64   O     O_3   0.427139 0.866998 0.094355 -0.612387
C198  C     C_3   0.400434 0.873242 0.148627 0.047115
H138  H     H_    0.435562 0.891786 0.177440 0.151816
H139  H     H_    0.386914 0.829007 0.167956 0.135032
C199  C     C_3   0.347092 0.918483 0.146792 -0.307408
H140  H     H_    0.364806 0.965676 0.145118 0.233419
H141  H     H_    0.319032 0.911354 0.108412 0.211899
C200  C     C_3   0.306666 0.912729 0.198765 -0.969103
H142  H     H_    0.288259 0.865811 0.202404 0.257708
H143  H     H_    0.268012 0.945073 0.195477 0.257651
H144  H     H_    0.333249 0.923989 0.237057 0.253899
N1    N     N_2   0.127716 0.894298 0.432426 -0.394779
H145  H     H_    0.107847 0.853453 0.443052 0.239742
C201  C     C_3   0.118884 0.906556 0.372766 -0.615591
H146  H     H_    0.069528 0.907678 0.362945 0.222490
H147  H     H_    0.140361 0.870360 0.346717 0.193086
H148  H     H_    0.138889 0.951315 0.361173 0.223682
N2    N     N_2   0.105702 0.127716 0.432427 -0.394779
H149  H     H_    0.146547 0.107847 0.443053 0.239742
C202  C     C_3   0.093444 0.118884 0.372766 -0.615591
H150  H     H_    0.092322 0.069529 0.362946 0.222491
H151  H     H_    0.129640 0.140362 0.346718 0.193087
H152  H     H_    0.048685 0.138890 0.361173 0.223682
N3    N     N_2   0.872283 0.105702 0.432427 -0.394779
H153  H     H_    0.892152 0.146547 0.443052 0.239742
C203  C     C_3   0.881115 0.093444 0.372766 -0.615592
H154  H     H_    0.930471 0.092322 0.362946 0.222490
H155  H     H_    0.859638 0.129639 0.346717 0.193087
H156  H     H_    0.861110 0.048685 0.361173 0.223683
N4    N     N_2   0.894298 0.872285 0.432426 -0.394776
H157  H     H_    0.853454 0.892155 0.443051 0.239742
C204  C     C_3   0.906558 0.881116 0.372765 -0.615592
H158  H     H_    0.907680 0.930472 0.362944 0.222489
H159  H     H_    0.870362 0.859639 0.346716 0.193086
H160  H     H_    0.951316 0.861110 0.361172 0.223681
N5    N     N_2   0.127717 0.105702 0.567573 -0.394780
H161  H     H_    0.107848 0.146547 0.556948 0.239742
C205  C     C_3   0.118885 0.093444 0.627234 -0.615593
H162  H     H_    0.069529 0.092323 0.637054 0.222491
H163  H     H_    0.140362 0.129639 0.653283 0.193087
H164  H     H_    0.138890 0.048685 0.638827 0.223683
N6    N     N_2   0.105702 0.872283 0.567573 -0.394780
H165  H     H_    0.146547 0.892152 0.556947 0.239742
C206  C     C_3   0.093444 0.881115 0.627233 -0.615591
H166  H     H_    0.092323 0.930471 0.637054 0.222491
H167  H     H_    0.129640 0.859638 0.653282 0.193086
H168  H     H_    0.048685 0.861110 0.638827 0.223682
N7    N     N_2   0.872284 0.894297 0.567573 -0.394780
H169  H     H_    0.892153 0.853453 0.556948 0.239743
C207  C     C_3   0.881116 0.906556 0.627233 -0.615594
H170  H     H_    0.930471 0.907678 0.637054 0.222491
H171  H     H_    0.859638 0.870360 0.653282 0.193087
H172  H     H_    0.861110 0.951315 0.638827 0.223683
N8    N     N_2   0.894298 0.127716 0.567573 -0.394779
H173  H     H_    0.853453 0.107847 0.556948 0.239742
C208  C     C_3   0.906556 0.118884 0.627234 -0.615591
H174  H     H_    0.907678 0.069529 0.637054 0.222490
H175  H     H_    0.870361 0.140362 0.653282 0.193087
H176  H     H_    0.951315 0.138890 0.638827 0.223683
N9    N     N_2   0.627717 0.394298 0.932427 -0.394779
H177  H     H_    0.607848 0.353453 0.943053 0.239742
C209  C     C_3   0.618884 0.406556 0.872767 -0.615592
H178  H     H_    0.569529 0.407677 0.862946 0.222491
H179  H     H_    0.640362 0.370360 0.846718 0.193087
H180  H     H_    0.638890 0.451315 0.861173 0.223683
N10   N     N_2   0.605703 0.627716 0.932427 -0.394780
H181  H     H_    0.646547 0.607847 0.943053 0.239742
C210  C     C_3   0.593444 0.618884 0.872767 -0.615592
H182  H     H_    0.592323 0.569529 0.862946 0.222491
H183  H     H_    0.629640 0.640362 0.846718 0.193087
H184  H     H_    0.548685 0.638890 0.861173 0.223683
N11   N     N_2   0.372284 0.605702 0.932426 -0.394778
H185  H     H_    0.392153 0.646547 0.943052 0.239743
C211  C     C_3   0.381115 0.593443 0.872766 -0.615591
H186  H     H_    0.430471 0.592321 0.862945 0.222490
H187  H     H_    0.359638 0.629639 0.846717 0.193087
H188  H     H_    0.361110 0.548685 0.861173 0.223682
N12   N     N_2   0.394298 0.372284 0.932427 -0.394779
H189  H     H_    0.353453 0.392153 0.943052 0.239742
C212  C     C_3   0.406556 0.381115 0.872766 -0.615591
H190  H     H_    0.407678 0.430471 0.862945 0.222490
H191  H     H_    0.370360 0.359638 0.846717 0.193087
H192  H     H_    0.451315 0.361110 0.861173 0.223683
N13   N     N_2   0.627716 0.605702 0.067574 -0.394777
H193  H     H_    0.607846 0.646547 0.056949 0.239742
C213  C     C_3   0.618884 0.593443 0.127235 -0.615591
H194  H     H_    0.569528 0.592321 0.137055 0.222490
H195  H     H_    0.640360 0.629639 0.153284 0.193085
H196  H     H_    0.638889 0.548684 0.138828 0.223681
N14   N     N_2   0.605702 0.372284 0.067573 -0.394779
H197  H     H_    0.646547 0.392153 0.056948 0.239742
C214  C     C_3   0.593444 0.381116 0.127234 -0.615593
H198  H     H_    0.592322 0.430471 0.137054 0.222491
H199  H     H_    0.629640 0.359639 0.153283 0.193087
H200  H     H_    0.548685 0.361110 0.138827 0.223683
N15   N     N_2   0.372283 0.394297 0.067573 -0.394779
H201  H     H_    0.392152 0.353452 0.056947 0.239742
C215  C     C_3   0.381115 0.406556 0.127233 -0.615592
H202  H     H_    0.430471 0.407677 0.137054 0.222491
H203  H     H_    0.359638 0.370360 0.153282 0.193087
H204  H     H_    0.361110 0.451315 0.138827 0.223682
N16   N     N_2   0.394298 0.627716 0.067573 -0.394779
H205  H     H_    0.353453 0.607847 0.056948 0.239743
C216  C     C_3   0.406556 0.618885 0.127234 -0.615592
H206  H     H_    0.407678 0.569529 0.137054 0.222490
H207  H     H_    0.370361 0.640362 0.153282 0.193087
H208  H     H_    0.451315 0.638890 0.138827 0.223683

loop_
_geom_bond_atom_site_label_1
_geom_bond_atom_site_label_2
_ccdc_geom_bond_type
C207  H170  S    
C22   C150  A    
C114  H26   S    
C5    C37   S    
C198  H139  S    
C165  C166  S    
N7    H169  S    
C30   C45   S    
C213  H194  S    
N2    H149  S    
C117  C133  A    
Cu1   O17   S    
C178  H91   S    
C75   O51   S    
C168  H68   S    
C163  H56   S    
C120  H32   S    
C16   C144  A    
C12   C36   A    
C44   O40   A    
C20   C40   A    
C8    O14   A    
C215  H203  S    
C130  C146  A    
C53   O25   A    
C160  H49   S    
C49   O17   A    
C208  H176  S    
C62   C70   T    
C161  H51   S    
C199  C200  S    
C200  H143  S    
C169  C170  S    
C92   H6    S    
N14   C214  S    
Cu4   O20   S    
C27   C143  A    
C175  H84   S    
C121  N1    S    
Cu6   O30   S    
C129  C145  A    
Cu2   O18   S    
C31   C147  A    
C2    C34   S    
C116  H28   S    
C1    O5    A    
Cu4   O24   S    
O49   C153  S    
C199  H141  S    
C114  C130  A    
C108  C124  A    
C82   O58   S    
Cu12  O45   S    
C136  C152  A    
C201  H148  S    
C13   C77   A    
C129  N9    S    
C130  N10   S    
C172  H78   S    
C103  H11   S    
C56   O32   A    
C174  H82   S    
C84   C100  A    
C91   C107  A    
Cu5   O9    S    
C179  H93   S    
C193  H127  S    
C122  N2    S    
C188  H116  S    
C204  H160  S    
C104  H10   S    
C109  H21   S    
O57   C177  S    
C183  C184  S    
C16   C80   A    
C206  H168  S    
C205  H163  S    
C13   C33   A    
N10   C210  S    
C136  N16   S    
O59   C183  S    
C123  N3    S    
C46   O42   A    
C16   C34   A    
C175  C176  S    
C2    O8    A    
N12   C212  S    
C127  C143  A    
C180  C181  S    
C128  C144  A    
Cu9   O33   S    
Cu10  O39   S    
C157  H43   S    
C167  H65   S    
Cu8   O28   S    
C63   C71   T    
C154  H36   S    
N13   C213  S    
C190  H119  S    
C32   C47   S    
C197  H136  S    
C98   H16   S    
N10   H181  S    
C178  C179  S    
Cu11  O43   S    
O54   C168  S    
C168  C169  S    
C158  H45   S    
C173  H81   S    
C196  H134  S    
C111  H23   S    
C191  H122  S    
Cu7   O11   S    
C78   C94   A    
C128  N8    S    
C53   O27   A    
C49   O19   A    
Cu7   O13   S    
C91   H7    S    
C74   C90   A    
C11   C35   A    
C18   C38   A    
C89   H5    S    
C210  H183  S    
C83   O59   S    
C99   C115  A    
C177  C178  S    
C135  N15   S    
C181  H98   S    
C18   C82   A    
C186  C187  S    
C119  H31   S    
C162  H55   S    
N5    H161  S    
C45   O41   A    
C117  H29   S    
C29   C149  A    
C211  H188  S    
C73   O49   S    
C164  H59   S    
C184  H105  S    
C7    C39   S    
C10   C138  A    
C216  H207  S    
C189  H117  S    
Cu12  O47   S    
C84   O60   S    
C155  H37   S    
C203  H155  S    
C14   C142  A    
N1    H145  S    
C196  H133  S    
C131  N11   S    
C101  H9    S    
C182  H100  S    
C179  H95   S    
C100  H14   S    
C187  H112  S    
C182  H102  S    
C202  H150  S    
N2    C202  S    
C154  H35   S    
C133  N13   S    
C79   O55   S    
C209  H179  S    
C14   C36   A    
Cu2   O2    S    
C185  H107  S    
O63   C195  S    
C123  C139  A    
C14   C78   A    
C49   C57   S    
C171  H75   S    
C126  C142  A    
C156  H40   S    
C55   O31   A    
C173  H80   S    
C52   C60   S    
C59   C67   T    
Cu9   O35   S    
Cu10  O37   S    
C53   C61   S    
C92   C108  A    
C167  H67   S    
C15   C79   A    
C125  C141  A    
O62   C192  S    
C31   C46   S    
C55   C63   S    
C190  C191  S    
C56   C64   S    
C131  C147  A    
C21   C149  A    
Cu11  O41   S    
C75   C91   A    
C169  H71   S    
C214  H198  S    
Cu5   O25   S    
C176  H87   S    
C19   C83   A    
C88   C104  A    
O53   C165  S    
N9    H177  S    
N15   C215  S    
C82   C98   A    
C7    O11   A    
C94   H4    S    
C177  H89   S    
C125  N5    S    
C41   O39   A    
C51   O23   A    
C181  C182  S    
C27   C139  A    
C174  H83   S    
C25   C137  A    
C166  H63   S    
Cu8   O12   S    
C31   C151  A    
C30   C152  A    
C211  H186  S    
C116  C132  A    
C3    C35   S    
C106  C122  A    
C183  H104  S    
N11   H185  S    
C32   C150  A    
C212  H191  S    
O64   C198  S    
C110  C126  A    
C155  H39   S    
C15   C143  A    
C76   C92   A    
Cu5   O15   S    
C170  H72   S    
C20   C84   A    
C42   O38   A    
C47   O43   A    
Cu1   Cu3   S    
N16   H205  S    
C86   C102  A    
Cu3   O3    S    
C190  H120  S    
C202  H152  S    
C45   O47   A    
C153  H33   S    
C110  H22   S    
C172  C173  S    
C126  N6    S    
C1    O1    A    
C157  H42   S    
C95   H3    S    
C7    O15   A    
O51   C159  S    
C85   O61   S    
C65   C72   S    
C8    C40   S    
C163  H57   S    
C171  C172  S    
C156  C157  S    
C55   O29   A    
C115  H27   S    
C11   C75   A    
C27   C42   S    
C208  H175  S    
C184  C185  S    
C161  H52   S    
Cu1   O23   S    
N6    H165  S    
C4    O4    A    
C28   C142  A    
O58   C180  S    
C124  N4    S    
C214  H200  S    
C89   C105  A    
N12   H189  S    
O52   C162  S    
C175  H85   S    
C105  H17   S    
C6    C38   S    
Cu3   O5    S    
C93   C109  A    
C153  C154  S    
C160  C161  S    
C9    C33   A    
C161  H53   S    
C3    O7    A    
C100  C116  A    
C107  C123  A    
C48   O48   A    
Cu12  O46   S    
Cu9   Cu10  S    
C158  H44   S    
C201  H147  S    
C51   O21   A    
C104  C120  A    
C179  H94   S    
C166  C167  S    
C188  H115  S    
C29   C145  A    
C194  H130  S    
C43   O35   A    
C204  H159  S    
C165  H61   S    
C206  H167  S    
C11   C139  A    
O60   C186  S    
C24   C152  A    
C178  H92   S    
C9    C137  A    
Cu11  Cu12  S    
C68   C69   S    
N3    C203  S    
C162  H54   S    
C12   C140  A    
C13   C141  A    
C180  H97   S    
Cu2   Cu4   S    
Cu10  O40   S    
C167  H66   S    
O56   C174  S    
C172  H77   S    
Cu5   Cu7   S    
C83   C99   A    
N13   H193  S    
C198  C199  S    
Cu6   Cu8   S    
N7    C207  S    
C86   O62   S    
C157  C158  S    
Cu2   O6    S    
N9    C209  S    
C194  H129  S    
C21   C85   A    
C134  N14   S    
C205  H162  S    
Cu6   O10   S    
C196  C197  S    
C122  C138  A    
C43   O37   A    
C108  H20   S    
C195  H131  S    
C215  H204  S    
C54   C62   S    
C87   O63   S    
C94   C110  A    
C119  C135  A    
N8    H173  S    
C120  C136  A    
C50   C58   S    
C80   C96   A    
C17   C145  A    
N4    H157  S    
C79   C95   A    
C164  H58   S    
C207  H171  S    
C4    O6    A    
C66   C71   S    
C50   O20   A    
C181  H99   S    
C186  H111  S    
Cu3   O19   S    
C24   C88   A    
C90   C106  A    
C168  H69   S    
C42   O34   A    
C211  H187  S    
C12   C76   A    
C199  H140  S    
C46   O46   A    
C189  H118  S    
Cu12  O48   S    
C5    O13   A    
C155  H38   S    
C54   O28   A    
C124  C140  A    
C25   C141  A    
C57   C65   T    
C193  H126  S    
C26   C138  A    
C187  H113  S    
C194  H128  S    
C182  H101  S    
C32   C148  A    
C56   O30   A    
C210  H184  S    
C113  H25   S    
C48   O44   A    
C28   C43   S    
C52   O22   A    
C101  C117  A    
C170  H74   S    
C189  C190  S    
N4    C204  S    
C205  H164  S    
C73   C89   A    
C185  H108  S    
C135  C151  A    
C77   C93   A    
C171  H76   S    
Cu3   O21   S    
C17   C81   A    
C22   C86   A    
C118  H30   S    
C19   C147  A    
C112  C128  A    
C187  C188  S    
Cu5   O31   S    
Cu9   O34   S    
Cu10  O38   S    
Cu8   O32   S    
C21   C37   A    
C159  H47   S    
C60   C68   T    
C81   O57   S    
C90   H8    S    
C198  H138  S    
C192  H125  S    
C197  H135  S    
C102  H12   S    
Cu11  O44   S    
N6    C206  S    
C185  H109  S    
Cu6   O14   S    
C158  H46   S    
O55   C171  S    
N16   C216  S    
C80   O56   S    
C176  H86   S    
C186  H110  S    
C28   C140  A    
C209  H178  S    
C191  H121  S    
C200  H142  S    
C1    C33   S    
C215  H202  S    
C115  C131  A    
C99   H15   S    
C96   C112  A    
N15   H201  S    
C210  H182  S    
C113  C129  A    
C164  H60   S    
C77   O53   S    
C177  H90   S    
C54   O26   A    
C6    O16   A    
C50   O18   A    
C121  C137  A    
N14   H197  S    
C134  C150  A    
C132  N12   S    
N5    C205  S    
C216  H206  S    
C162  C163  S    
C8    O12   A    
C106  H18   S    
C97   H13   S    
C58   C66   T    
C197  H137  S    
C195  C196  S    
C24   C38   A    
C213  H196  S    
C212  H190  S    
C213  H195  S    
C102  C118  A    
C203  H156  S    
C98   C114  A    
C64   C72   T    
C93   H1    S    
N1    C201  S    
C23   C87   A    
Cu4   O4    S    
C9    C73   A    
C193  C194  S    
C26   C144  A    
C25   C44   S    
C15   C35   A    
C30   C146  A    
Cu2   O22   S    
C202  H151  S    
Cu8   O16   S    
C207  H172  S    
C153  H34   S    
C52   O24   A    
C6    O10   A    
C29   C48   S    
C132  C148  A    
C133  C149  A    
C4    C36   S    
C127  N7    S    
C195  H132  S    
C209  H180  S    
C201  H146  S    
C47   O45   A    
C107  H19   S    
C156  H41   S    
C173  H79   S    
C96   H2    S    
C192  C193  S    
Cu9   O36   S    
C3    O3    A    
C159  C160  S    
C22   C40   A    
O50   C156  S    
C20   C148  A    
C208  H174  S    
C105  C121  A    
C184  H106  S    
C17   C37   A    
C10   C34   A    
O61   C189  S    
Cu11  O42   S    
C19   C39   A    
C163  C164  S    
C109  C125  A    
C169  H70   S    
C41   O33   A    
Cu1   O7    S    
C214  H199  S    
C111  C127  A    
C176  H88   S    
C87   C103  A    
C51   C59   S    
C97   C113  A    
Cu4   O8    S    
C191  H123  S    
C200  H144  S    
C85   C101  A    
C61   C69   T    
C160  H50   S    
C23   C151  A    
C2    O2    A    
C103  C119  A    
C159  H48   S    
C18   C146  A    
C118  C134  A    
C112  H24   S    
C216  H208  S    
C76   O52   S    
C174  C175  S    
C44   O36   A    
C170  H73   S    
C166  H64   S    
C95   C111  A    
C188  H114  S    
C10   C74   A    
C204  H158  S    
C192  H124  S    
C81   C97   A    
Cu7   O27   S    
C78   O54   S    
C183  H103  S    
N11   C211  S    
C165  H62   S    
Cu7   O29   S    
C206  H166  S    
C212  H192  S    
C154  C155  S    
C5    O9    A    
C203  H154  S    
C26   C41   S    
Cu6   O26   S    
N3    H153  S    
N8    C208  S    
C67   C70   S    
C180  H96   S    
C23   C39   A    
C74   O50   S    
Cu1   O1    S    
C88   O64   S    
