data_mof_unit_3580.cif
_audit_creation_date              2012-12-10T17:22:37-0500
_audit_creation_method            fapswitch 2.2
_symmetry_space_group_name_H-M    P1
_symmetry_Int_Tables_number       1
_space_group_crystal_system       triclinic
_cell_length_a                    26.005309
_cell_length_b                    35.980251
_cell_length_c                    25.963358
_cell_angle_alpha                 90.358554
_cell_angle_beta                  89.704328
_cell_angle_gamma                 90.267168
_cell_volume                      24292.2714606

loop_
_atom_site_label
_atom_site_type_symbol
_atom_type_description
_atom_site_fract_x
_atom_site_fract_y
_atom_site_fract_z
_atom_type_partial_charge
C1    C     C_R   0.499852 0.150530 0.249829 0.803526
C2    C     C_R   0.499965 0.150469 0.749946 0.812494
C3    C     C_R   0.500016 0.849499 0.750154 0.852197
C4    C     C_R   0.500133 0.849458 0.250072 0.840286
C5    C     C_R   0.499880 0.650518 0.749792 0.806485
C6    C     C_R   0.500380 0.650501 0.250397 0.804395
C7    C     C_R   0.499722 0.349537 0.249780 0.833418
C8    C     C_R   0.500046 0.349450 0.750199 0.813824
C9    C     C_R   0.999903 0.150533 0.749755 0.805851
C10   C     C_R   0.000158 0.150475 0.250083 0.806410
C11   C     C_R   0.999587 0.849508 0.249682 0.804535
C12   C     C_R   0.999225 0.849465 0.750990 0.786982
C13   C     C_R   0.000163 0.650500 0.249362 0.819752
C14   C     C_R   0.999538 0.650468 0.749562 0.817846
C15   C     C_R   0.999954 0.349518 0.750015 0.839484
C16   C     C_R   0.999838 0.349441 0.250472 0.839533
C17   C     C_R   0.276822 0.217098 0.263916 0.073542
C18   C     C_R   0.277122 0.270599 0.786487 0.051804
C19   C     C_R   0.277418 0.748264 0.797633 0.080603
C20   C     C_R   0.276870 0.718457 0.231019 0.077056
C21   C     C_R   0.277686 0.750771 0.702520 0.080163
C22   C     C_R   0.277143 0.783006 0.263160 0.076112
C23   C     C_R   0.277860 0.283273 0.240417 0.072270
C24   C     C_R   0.277368 0.230346 0.709666 0.074733
C25   C     C_R   0.775534 0.226221 0.714995 0.067824
C26   C     C_R   0.775265 0.227104 0.286726 0.084309
C27   C     C_R   0.777249 0.783051 0.240044 0.076632
C28   C     C_R   0.777184 0.740328 0.704052 0.074693
C29   C     C_R   0.776982 0.716113 0.259907 0.078261
C30   C     C_R   0.776847 0.759782 0.795350 0.074703
C31   C     C_R   0.775751 0.264207 0.793999 0.076456
C32   C     C_R   0.777202 0.258312 0.203202 0.069002
C33   C     C_R   0.196221 0.250472 0.252284 -0.106870
C34   C     C_R   0.196077 0.249892 0.748613 -0.091140
C35   C     C_R   0.196418 0.750406 0.750255 -0.112674
C36   C     C_R   0.195994 0.750211 0.249550 -0.105995
C37   C     C_R   0.696973 0.256307 0.744328 -0.153383
C38   C     C_R   0.697252 0.255162 0.252905 -0.147678
C39   C     C_R   0.696086 0.749506 0.250603 -0.116374
C40   C     C_R   0.695975 0.750278 0.749553 -0.099870
C41   C     C_R   0.304041 0.249800 0.250497 -0.126323
C42   C     C_R   0.304044 0.249860 0.748845 -0.122681
C43   C     C_R   0.304181 0.749688 0.750034 -0.129844
C44   C     C_R   0.303874 0.750253 0.248806 -0.116306
C45   C     C_R   0.802966 0.243465 0.756253 -0.172773
C46   C     C_R   0.803587 0.242281 0.244643 -0.172443
C47   C     C_R   0.803901 0.749701 0.250211 -0.124214
C48   C     C_R   0.803897 0.749779 0.749860 -0.119584
C49   C     C_3   0.446273 0.479763 0.231360 0.283885
C50   C     C_3   0.481720 0.477230 0.696337 0.307850
C51   C     C_3   0.484938 0.520756 0.694077 0.265226
C52   C     C_3   0.446164 0.522748 0.240786 0.294071
C53   C     C_3   0.442244 0.978301 0.760668 0.267320
C54   C     C_3   0.485141 0.977244 0.194611 0.304927
C55   C     C_3   0.486133 0.020861 0.193119 0.262158
C56   C     C_3   0.442963 0.021931 0.760642 0.304567
C57   C     C_3   0.942675 0.478400 0.765124 0.270182
C58   C     C_3   0.981483 0.476327 0.195746 0.297806
C59   C     C_3   0.982869 0.519942 0.193131 0.271710
C60   C     C_3   0.944908 0.521895 0.769459 0.301710
C61   C     C_3   0.956074 0.978802 0.208625 0.273333
C62   C     C_3   0.991793 0.977345 0.692933 0.292913
C63   C     C_3   0.989259 0.020927 0.692227 0.266053
C64   C     C_3   0.957501 0.022417 0.209459 0.300916
C65   C     C_3   0.540029 0.478082 0.208249 0.287611
C66   C     C_3   0.460538 0.478529 0.792018 0.258375
C67   C     C_3   0.457568 0.521942 0.787861 0.304374
C68   C     C_3   0.539013 0.521751 0.207017 0.262644
C69   C     C_3   0.514712 0.977411 0.694778 0.308036
C70   C     C_3   0.457325 0.978615 0.288400 0.265173
C71   C     C_3   0.456804 0.022205 0.286428 0.298175
C72   C     C_3   0.514159 0.020999 0.693696 0.271041
C73   C     C_3   0.006788 0.477625 0.691384 0.301785
C74   C     C_3   0.959634 0.479131 0.291071 0.262457
C75   C     C_3   0.958562 0.522666 0.287756 0.284451
C76   C     C_3   0.002322 0.521114 0.690166 0.272155
C77   C     C_3   0.051407 0.977415 0.227845 0.303270
C78   C     C_3   0.954162 0.978428 0.783678 0.262197
C79   C     C_3   0.954575 0.022024 0.783378 0.299520
C80   C     C_3   0.053013 0.020985 0.228317 0.267562
C81   C     C_1   0.000293 0.110792 0.249641 -0.179981
C82   C     C_1   0.999713 0.110849 0.748981 -0.174328
C83   C     C_1   0.000029 0.889146 0.750485 -0.178185
C84   C     C_1   0.997952 0.889128 0.248192 -0.191545
C85   C     C_1   0.998457 0.610798 0.748456 -0.194433
C86   C     C_1   0.000319 0.610753 0.247529 -0.165855
C87   C     C_1   0.999284 0.389076 0.251846 -0.187980
C88   C     C_1   0.998803 0.389154 0.748938 -0.197645
C89   C     C_1   0.499449 0.110775 0.749259 -0.185964
C90   C     C_1   0.499650 0.110840 0.249174 -0.178015
C91   C     C_1   0.500128 0.889126 0.250374 -0.195479
C92   C     C_1   0.499358 0.889130 0.749983 -0.209894
C93   C     C_1   0.501609 0.610880 0.251584 -0.182191
C94   C     C_1   0.499591 0.610804 0.749229 -0.172716
C95   C     C_1   0.500264 0.389095 0.750586 -0.190124
C96   C     C_1   0.498752 0.389231 0.248771 -0.179825
C97   C     C_3   0.499367 0.463535 0.247727 0.054535
C98   C     C_3   0.498925 0.463312 0.750384 0.047863
C99   C     C_3   0.498571 0.536482 0.748657 0.046862
C100  C     C_3   0.502304 0.536684 0.250479 0.052720
C101  C     C_3   0.497486 0.963320 0.748896 0.052641
C102  C     C_3   0.498550 0.963369 0.249731 0.057297
C103  C     C_3   0.498588 0.036546 0.248038 0.054398
C104  C     C_3   0.498129 0.036481 0.747839 0.050854
C105  C     C_3   0.996278 0.463360 0.747110 0.051180
C106  C     C_3   0.998135 0.463261 0.250351 0.067250
C107  C     C_3   0.998455 0.536380 0.246801 0.052785
C108  C     C_3   0.996690 0.536541 0.746444 0.055478
C109  C     C_3   0.997588 0.963354 0.246144 0.054098
C110  C     C_3   0.999181 0.963398 0.749230 0.049495
C111  C     C_3   0.998618 0.036565 0.747755 0.051610
C112  C     C_3   0.999995 0.036521 0.247094 0.051798
C113  C     C_3   0.988380 0.021444 0.301763 -0.365804
C114  C     C_3   0.050891 0.021993 0.767774 -0.363337
C115  C     C_3   0.050659 0.979092 0.770161 -0.364716
C116  C     C_3   0.986870 0.978550 0.301181 -0.374933
C117  C     C_3   0.041703 0.521699 0.779332 -0.373907
C118  C     C_3   0.052501 0.521669 0.261095 -0.358527
C119  C     C_3   0.052622 0.478752 0.261920 -0.384298
C120  C     C_3   0.038451 0.478960 0.783497 -0.361215
C121  C     C_3   0.536085 0.021770 0.788767 -0.368328
C122  C     C_3   0.551859 0.021843 0.264881 -0.368551
C123  C     C_3   0.552015 0.978918 0.265161 -0.378847
C124  C     C_3   0.535030 0.978867 0.790032 -0.366116
C125  C     C_3   0.520752 0.520705 0.302527 -0.358464
C126  C     C_3   0.552274 0.521854 0.764357 -0.364576
C127  C     C_3   0.553380 0.478928 0.761932 -0.363291
C128  C     C_3   0.513603 0.477982 0.302462 -0.368034
C129  C     C_1   0.000424 0.077382 0.248575 -0.010529
C130  C     C_1   0.999213 0.077436 0.748175 -0.001570
C131  C     C_1   0.000083 0.922548 0.749821 -0.001626
C132  C     C_1   0.997092 0.922509 0.246942 -0.012339
C133  C     C_1   0.997508 0.577395 0.747398 -0.018688
C134  C     C_1   0.999582 0.577306 0.246231 0.001549
C135  C     C_1   0.998675 0.422459 0.252039 0.014598
C136  C     C_1   0.997552 0.422529 0.747921 -0.010650
C137  C     C_1   0.498845 0.077357 0.748481 -0.008492
C138  C     C_1   0.499228 0.077424 0.248413 -0.006405
C139  C     C_1   0.499548 0.922527 0.250279 -0.008029
C140  C     C_1   0.498390 0.922505 0.749639 -0.013039
C141  C     C_1   0.502436 0.577497 0.251902 -0.019046
C142  C     C_1   0.499119 0.577375 0.748703 -0.002883
C143  C     C_1   0.499913 0.422489 0.750719 -0.010785
C144  C     C_1   0.498450 0.422649 0.247857 0.004416
C145  C     C_R   0.419097 0.288593 0.056326 0.524057
C146  C     C_R   0.403182 0.268957 0.952622 0.501065
C147  C     C_R   0.523925 0.820377 0.951839 0.503910
C148  C     C_R   0.557674 0.807490 0.052638 0.508226
C149  C     C_R   0.468506 0.818064 0.553514 0.491720
C150  C     C_R   0.458132 0.813675 0.446678 0.534093
C151  C     C_R   0.539161 0.315923 0.445899 0.522247
C152  C     C_R   0.540430 0.315810 0.553725 0.506824
C153  C     C_R   0.959163 0.315037 0.553945 0.489635
C154  C     C_R   0.959628 0.314775 0.446070 0.526008
C155  C     C_R   0.080433 0.790080 0.443195 0.498173
C156  C     C_R   0.084756 0.789484 0.551378 0.484882
C157  C     C_R   0.011177 0.679007 0.048464 0.488410
C158  C     C_R   0.048305 0.688044 0.947199 0.521713
C159  C     C_R   0.023447 0.320140 0.951863 0.503659
C160  C     C_R   0.053674 0.308020 0.053519 0.495227
C161  C     C_R   0.500285 0.250395 0.389935 0.870041
C162  C     C_R   0.501195 0.250710 0.610082 0.887953
C163  C     C_R   0.499264 0.750699 0.610055 0.849575
C164  C     C_R   0.499678 0.750160 0.390044 0.904396
C165  C     C_R   0.501087 0.751520 0.890040 0.855388
C166  C     C_R   0.501178 0.750343 0.110078 0.903817
C167  C     C_R   0.500698 0.249791 0.110085 0.914130
C168  C     C_R   0.497650 0.251262 0.890135 0.880726
C169  C     C_R   0.000993 0.251433 0.890034 0.860756
C170  C     C_R   0.000416 0.249860 0.110061 0.884498
C171  C     C_R   0.000734 0.748818 0.109818 0.846151
C172  C     C_R   0.000904 0.749626 0.889941 0.906937
C173  C     C_R   0.999393 0.749782 0.389881 0.910984
C174  C     C_R   0.001854 0.751093 0.610055 0.920585
C175  C     C_R   0.999195 0.250578 0.609999 0.892968
C176  C     C_R   0.999830 0.250131 0.389975 0.900599
C177  C     C_R   0.373300 0.297779 0.031683 -0.306156
C178  C     C_R   0.365575 0.288147 0.980857 -0.329147
C179  C     C_R   0.550096 0.848100 0.979357 -0.293374
C180  C     C_R   0.566755 0.841822 0.028904 -0.319833
C181  C     C_R   0.457815 0.849787 0.524995 -0.303416
C182  C     C_R   0.452589 0.847644 0.472282 -0.328886
C183  C     C_R   0.550890 0.348191 0.473328 -0.302741
C184  C     C_R   0.551661 0.348140 0.526322 -0.335023
C185  C     C_R   0.948860 0.347457 0.526685 -0.323488
C186  C     C_R   0.949592 0.347418 0.473665 -0.322576
C187  C     C_R   0.124959 0.801107 0.468598 -0.322733
C188  C     C_R   0.127190 0.801110 0.521362 -0.268307
C189  C     C_R   0.037657 0.650469 0.024191 -0.289511
C190  C     C_R   0.057377 0.655023 0.975244 -0.359821
C191  C     C_R   0.050825 0.347433 0.979148 -0.321848
C192  C     C_R   0.066555 0.341132 0.029032 -0.288641
C193  C     C_R   0.452383 0.262077 0.975121 -0.107019
C194  C     C_R   0.457236 0.267464 0.029123 -0.097426
C195  C     C_R   0.525596 0.780734 0.027672 -0.083849
C196  C     C_R   0.515815 0.784574 0.974365 -0.112722
C197  C     C_R   0.479973 0.782835 0.472943 -0.093738
C198  C     C_R   0.482801 0.784153 0.527654 -0.111531
C199  C     C_R   0.520998 0.283575 0.527390 -0.093289
C200  C     C_R   0.520459 0.283585 0.472420 -0.108084
C201  C     C_R   0.979322 0.282987 0.472564 -0.093987
C202  C     C_R   0.979096 0.283088 0.527498 -0.095333
C203  C     C_R   0.042982 0.770548 0.526208 -0.091779
C204  C     C_R   0.041244 0.770638 0.471235 -0.090847
C205  C     C_R   0.020438 0.717501 0.972201 -0.072470
C206  C     C_R   0.009491 0.714937 0.025519 -0.131541
C207  C     C_R   0.023041 0.280806 0.027876 -0.115035
C208  C     C_R   0.014423 0.284450 0.974444 -0.117707
C209  C     C_R   0.496635 0.250018 0.946485 -0.152748
C210  C     C_R   0.500140 0.251860 0.054297 -0.144428
C211  C     C_R   0.503746 0.750089 0.054026 -0.143950
C212  C     C_R   0.498845 0.752496 0.946322 -0.146401
C213  C     C_R   0.497943 0.750771 0.446173 -0.151797
C214  C     C_R   0.498871 0.751601 0.554126 -0.136062
C215  C     C_R   0.502753 0.251462 0.553997 -0.146092
C216  C     C_R   0.501470 0.251535 0.445956 -0.143291
C217  C     C_R   0.998308 0.251072 0.445952 -0.146679
C218  C     C_R   0.997864 0.251280 0.553934 -0.146501
C219  C     C_R   0.003148 0.751423 0.553819 -0.145421
C220  C     C_R   0.000710 0.751381 0.445811 -0.135153
C221  C     C_R   0.003056 0.749545 0.945865 -0.130325
C222  C     C_R   0.997922 0.748144 0.053539 -0.155841
C223  C     C_R   0.002539 0.249682 0.053985 -0.145232
C224  C     C_R   0.998473 0.252194 0.946258 -0.142821
C225  C     C_R   0.541296 0.237546 0.972038 0.074844
C226  C     C_R   0.542475 0.237597 0.026319 0.053386
C227  C     C_R   0.482131 0.719751 0.026793 0.063015
C228  C     C_R   0.481486 0.720347 0.972461 0.076202
C229  C     C_R   0.516499 0.719515 0.472867 0.064308
C230  C     C_R   0.516280 0.719702 0.527127 0.069979
C231  C     C_R   0.483656 0.220054 0.527137 0.071663
C232  C     C_R   0.482687 0.220197 0.472903 0.076458
C233  C     C_R   0.017097 0.219845 0.472633 0.075676
C234  C     C_R   0.016752 0.219892 0.526875 0.067430
C235  C     C_R   0.964394 0.731129 0.527691 0.068639
C236  C     C_R   0.962854 0.731471 0.473473 0.060126
C237  C     C_R   0.985109 0.781230 0.973080 0.058082
C238  C     C_R   0.984653 0.781039 0.027409 0.082870
C239  C     C_R   0.982258 0.218998 0.026579 0.067120
C240  C     C_R   0.981825 0.219725 0.972224 0.075666
C241  C     C_R   0.584510 0.223647 0.944495 -0.163114
C242  C     C_R   0.586594 0.223666 0.051552 -0.166220
C243  C     C_R   0.461618 0.688392 0.052715 -0.163892
C244  C     C_R   0.461187 0.689190 0.945532 -0.166479
C245  C     C_R   0.536504 0.688082 0.446339 -0.164874
C246  C     C_R   0.535999 0.688341 0.553372 -0.161069
C247  C     C_R   0.463895 0.188557 0.553575 -0.158848
C248  C     C_R   0.461493 0.189008 0.446635 -0.162712
C249  C     C_R   0.037597 0.188585 0.446033 -0.167231
C250  C     C_R   0.036846 0.188613 0.553035 -0.170592
C251  C     C_R   0.927507 0.709435 0.554793 -0.162065
C252  C     C_R   0.923707 0.711007 0.447833 -0.156059
C253  C     C_R   0.967632 0.813386 0.947174 -0.164647
C254  C     C_R   0.967811 0.813222 0.054328 -0.156694
C255  C     C_R   0.962836 0.187222 0.052324 -0.172336
C256  C     C_R   0.962539 0.188312 0.945114 -0.159469
C257  C     C_R   0.627783 0.210852 0.970166 -0.148063
C258  C     C_R   0.628790 0.210798 0.023588 -0.134042
C259  C     C_R   0.442224 0.658067 0.025353 -0.143674
C260  C     C_R   0.442277 0.658390 0.971901 -0.144062
C261  C     C_R   0.555491 0.657688 0.473030 -0.134618
C262  C     C_R   0.555332 0.657861 0.526449 -0.117529
C263  C     C_R   0.444205 0.158095 0.526864 -0.164589
C264  C     C_R   0.442952 0.158367 0.473533 -0.156044
C265  C     C_R   0.057002 0.158304 0.472614 -0.164490
C266  C     C_R   0.056899 0.158406 0.526019 -0.128877
C267  C     C_R   0.890216 0.688934 0.528676 -0.157085
C268  C     C_R   0.887871 0.690121 0.475361 -0.131400
C269  C     C_R   0.951626 0.844727 0.974506 -0.129829
C270  C     C_R   0.951943 0.844709 0.027959 -0.138570
C271  C     C_R   0.944668 0.156597 0.024757 -0.141847
C272  C     C_R   0.944704 0.157093 0.971304 -0.140843
C273  C     C_R   0.640379 0.251858 0.251449 0.795114
C274  C     C_R   0.640301 0.252360 0.747399 0.813744
C275  C     C_R   0.639909 0.750018 0.749771 0.791563
C276  C     C_R   0.640017 0.749539 0.250634 0.776383
C277  C     C_R   0.139938 0.249661 0.749232 0.788574
C278  C     C_R   0.140087 0.250123 0.250353 0.775447
C279  C     C_R   0.139920 0.750156 0.250008 0.802376
C280  C     C_R   0.140202 0.750030 0.750136 0.782925
C281  C     C_R   0.360025 0.249784 0.250263 0.799043
C282  C     C_R   0.360097 0.249661 0.749517 0.789176
C283  C     C_R   0.360061 0.749984 0.749956 0.778852
C284  C     C_R   0.360017 0.750032 0.249936 0.782751
C285  C     C_R   0.859751 0.247296 0.753112 0.804250
C286  C     C_R   0.859919 0.247524 0.247827 0.799488
C287  C     C_R   0.859970 0.749881 0.250129 0.786632
C288  C     C_R   0.860027 0.749834 0.749919 0.780692
C289  C     C_R   0.302661 0.184026 0.277508 -0.233438
C290  C     C_R   0.303255 0.292507 0.823562 -0.240307
C291  C     C_R   0.303620 0.743952 0.845155 -0.221489
C292  C     C_R   0.302886 0.687113 0.210656 -0.227024
C293  C     C_R   0.304098 0.753593 0.654644 -0.250299
C294  C     C_R   0.303276 0.816444 0.275638 -0.252315
C295  C     C_R   0.304748 0.315985 0.226109 -0.221942
C296  C     C_R   0.303834 0.210256 0.670805 -0.235514
C297  C     C_R   0.797259 0.198928 0.681802 -0.209542
C298  C     C_R   0.795847 0.200986 0.321894 -0.211654
C299  C     C_R   0.803657 0.816330 0.227350 -0.230271
C300  C     C_R   0.803427 0.730110 0.658123 -0.231559
C301  C     C_R   0.803094 0.682598 0.270444 -0.231407
C302  C     C_R   0.802722 0.770151 0.841264 -0.240482
C303  C     C_R   0.798473 0.275432 0.841094 -0.204129
C304  C     C_R   0.801198 0.263186 0.154732 -0.200791
C305  C     C_R   0.275423 0.152835 0.293758 -0.268718
C306  C     C_R   0.276404 0.309756 0.863496 -0.262714
C307  C     C_R   0.277859 0.746513 0.892064 -0.262923
C308  C     C_R   0.275731 0.656635 0.191189 -0.292071
C309  C     C_R   0.278386 0.750361 0.608079 -0.206256
C310  C     C_R   0.276722 0.847822 0.292404 -0.291963
C311  C     C_R   0.278913 0.349097 0.217938 -0.268419
C312  C     C_R   0.277095 0.191802 0.631804 -0.249250
C313  C     C_R   0.774273 0.189793 0.635056 -0.263989
C314  C     C_R   0.768533 0.190154 0.365713 -0.248367
C315  C     C_R   0.777032 0.848900 0.217327 -0.264414
C316  C     C_R   0.776477 0.720732 0.613573 -0.250690
C317  C     C_R   0.776493 0.649464 0.278294 -0.298979
C318  C     C_R   0.775395 0.779689 0.885728 -0.248718
C319  C     C_R   0.775020 0.301800 0.872718 -0.278279
C320  C     C_R   0.778042 0.283989 0.116508 -0.279498
C321  C     C_R   0.222081 0.154128 0.298761 0.516420
C322  C     C_R   0.223174 0.305505 0.867258 0.564676
C323  C     C_R   0.224765 0.751173 0.893142 0.532935
C324  C     C_R   0.221821 0.656417 0.191833 0.544004
C325  C     C_R   0.225489 0.745811 0.607351 0.513513
C326  C     C_R   0.223102 0.846553 0.298609 0.556534
C327  C     C_R   0.225698 0.350721 0.223833 0.557179
C328  C     C_R   0.223380 0.193176 0.630242 0.562709
C329  C     C_R   0.728418 0.206669 0.621213 0.545014
C330  C     C_R   0.720310 0.205027 0.375805 0.495458
C331  C     C_R   0.723486 0.849338 0.219121 0.536954
C332  C     C_R   0.722911 0.720289 0.613804 0.553544
C333  C     C_R   0.722279 0.648779 0.278471 0.552203
C334  C     C_R   0.721826 0.780050 0.885243 0.565497
C335  C     C_R   0.727973 0.317107 0.858597 0.535996
C336  C     C_R   0.731398 0.302031 0.126841 0.552362
C337  C     C_R   0.195718 0.185701 0.282971 -0.239427
C338  C     C_R   0.196377 0.288210 0.827369 -0.256652
C339  C     C_R   0.197966 0.752591 0.846872 -0.244478
C340  C     C_R   0.195841 0.686883 0.212520 -0.214039
C341  C     C_R   0.198158 0.748749 0.653988 -0.317454
C342  C     C_R   0.196771 0.814424 0.283573 -0.229321
C343  C     C_R   0.198290 0.318339 0.235052 -0.277234
C344  C     C_R   0.196655 0.211587 0.669509 -0.252126
C345  C     C_R   0.702285 0.228374 0.657407 -0.228930
C346  C     C_R   0.699446 0.230245 0.341265 -0.271164
C347  C     C_R   0.696773 0.816453 0.228991 -0.268727
C348  C     C_R   0.696450 0.728680 0.659197 -0.256699
C349  C     C_R   0.696383 0.682131 0.269978 -0.222673
C350  C     C_R   0.695886 0.772299 0.839571 -0.258477
C351  C     C_R   0.703427 0.303862 0.814444 -0.218094
C352  C     C_R   0.705025 0.293598 0.172445 -0.220860
C353  C     C_R   0.222516 0.217597 0.265400 0.012366
C354  C     C_R   0.222831 0.269673 0.787243 0.005198
C355  C     C_R   0.223335 0.750762 0.798099 -0.010996
C356  C     C_R   0.222560 0.718453 0.231475 -0.006640
C357  C     C_R   0.223559 0.749646 0.702426 0.024630
C358  C     C_R   0.222948 0.782532 0.265215 0.001044
C359  C     C_R   0.223650 0.284028 0.243131 0.003936
C360  C     C_R   0.222986 0.230761 0.709208 -0.000445
C361  C     C_R   0.724262 0.236626 0.705929 -0.000306
C362  C     C_R   0.723671 0.237720 0.293569 0.026044
C363  C     C_R   0.722971 0.783036 0.240605 0.014329
C364  C     C_R   0.722851 0.740048 0.704251 0.002800
C365  C     C_R   0.722773 0.715935 0.259845 -0.005414
C366  C     C_R   0.722572 0.760566 0.794797 0.000986
C367  C     C_R   0.724501 0.274488 0.784505 0.008708
C368  C     C_R   0.725524 0.268914 0.209540 -0.003002
H1    H     H_    0.662315 0.200597 0.043495 0.137130
H2    H     H_    0.660460 0.200566 0.948464 0.135537
H3    H     H_    0.427144 0.634815 0.950778 0.142002
H4    H     H_    0.427051 0.634227 0.045743 0.124156
H5    H     H_    0.570639 0.634404 0.547193 0.129018
H6    H     H_    0.570726 0.634013 0.452137 0.133386
H7    H     H_    0.427724 0.134671 0.452941 0.153897
H8    H     H_    0.429570 0.134275 0.547680 0.129106
H9    H     H_    0.072624 0.135047 0.546663 0.142162
H10   H     H_    0.072388 0.134763 0.451600 0.142714
H11   H     H_    0.858379 0.674580 0.455227 0.139178
H12   H     H_    0.863071 0.671984 0.549928 0.131040
H13   H     H_    0.939162 0.869007 0.049125 0.126775
H14   H     H_    0.938755 0.869083 0.954088 0.124313
H15   H     H_    0.930456 0.133291 0.950044 0.142357
H16   H     H_    0.930497 0.132377 0.044960 0.139831
H17   H     H_    0.344101 0.181938 0.276840 0.160365
H18   H     H_    0.344669 0.295567 0.823022 0.178675
H19   H     H_    0.344367 0.738616 0.847175 0.165761
H20   H     H_    0.344418 0.685950 0.208887 0.151576
H21   H     H_    0.344931 0.758161 0.651935 0.166694
H22   H     H_    0.344521 0.818990 0.272580 0.167355
H23   H     H_    0.345942 0.316417 0.220293 0.162660
H24   H     H_    0.345376 0.208572 0.670152 0.140937
H25   H     H_    0.831229 0.183493 0.691659 0.194868
H26   H     H_    0.831291 0.186402 0.314885 0.198238
H27   H     H_    0.845060 0.817632 0.224021 0.161795
H28   H     H_    0.844896 0.728854 0.656003 0.159325
H29   H     H_    0.844517 0.681271 0.272684 0.163417
H30   H     H_    0.844187 0.771219 0.843509 0.161041
H31   H     H_    0.834391 0.263878 0.854140 0.170639
H32   H     H_    0.837735 0.250343 0.145712 0.165700
H33   H     H_    0.527795 0.467556 0.169509 -0.002972
H34   H     H_    0.421110 0.467660 0.783529 -0.006862
H35   H     H_    0.419238 0.529215 0.771421 -0.030982
H36   H     H_    0.522749 0.529610 0.168842 -0.022495
H37   H     H_    0.485444 0.966870 0.666743 -0.031745
H38   H     H_    0.418596 0.968987 0.275243 -0.020582
H39   H     H_    0.418928 0.031236 0.270640 -0.025847
H40   H     H_    0.483855 0.028973 0.665478 -0.027499
H41   H     H_    0.975893 0.465589 0.666396 -0.021524
H42   H     H_    0.920629 0.468310 0.280496 -0.030642
H43   H     H_    0.919775 0.530944 0.273471 -0.021156
H44   H     H_    0.966010 0.527384 0.669089 -0.030353
H45   H     H_    0.056021 0.967805 0.187014 -0.025263
H46   H     H_    0.916935 0.969527 0.765986 -0.015556
H47   H     H_    0.917706 0.031563 0.765900 -0.022536
H48   H     H_    0.059140 0.029698 0.187453 -0.016443
H49   H     H_    0.482630 0.470313 0.330214 0.218438
H50   H     H_    0.580943 0.469806 0.731509 0.216385
H51   H     H_    0.582605 0.533308 0.738479 0.203881
H52   H     H_    0.499019 0.533104 0.335373 0.204864
H53   H     H_    0.523133 0.969421 0.829068 0.206828
H54   H     H_    0.582138 0.968531 0.238160 0.215639
H55   H     H_    0.582433 0.032101 0.238334 0.206652
H56   H     H_    0.525953 0.032916 0.827574 0.210522
H57   H     H_    0.029557 0.471141 0.823993 0.212414
H58   H     H_    0.080824 0.468107 0.233080 0.216836
H59   H     H_    0.081743 0.531700 0.232921 0.211900
H60   H     H_    0.040901 0.534215 0.818642 0.202989
H61   H     H_    0.948638 0.968729 0.315087 0.211282
H62   H     H_    0.083642 0.968007 0.747414 0.210552
H63   H     H_    0.082639 0.031454 0.742041 0.212004
H64   H     H_    0.950891 0.032262 0.316099 0.213142
H65   H     H_    0.549623 0.464720 0.316023 0.200851
H66   H     H_    0.567815 0.467911 0.799084 0.206463
H67   H     H_    0.561642 0.531329 0.804114 0.218754
H68   H     H_    0.561959 0.527760 0.308798 0.214527
H69   H     H_    0.574521 0.968065 0.783158 0.213043
H70   H     H_    0.562311 0.969064 0.304260 0.217104
H71   H     H_    0.561513 0.032493 0.304008 0.212823
H72   H     H_    0.575818 0.031530 0.779961 0.210692
H73   H     H_    0.076575 0.466756 0.773833 0.209074
H74   H     H_    0.065638 0.469135 0.300292 0.218907
H75   H     H_    0.064098 0.532560 0.299554 0.216061
H76   H     H_    0.079107 0.529763 0.761520 0.215865
H77   H     H_    0.015956 0.967896 0.328575 0.213223
H78   H     H_    0.056398 0.970097 0.810646 0.212982
H79   H     H_    0.058951 0.033565 0.806773 0.212238
H80   H     H_    0.018250 0.031247 0.329296 0.205612
O1    O     O_3   0.500010 0.250000 0.250000 -0.481678
O2    O     O_3   0.500010 0.250000 0.750000 -0.481678
O3    O     O_3   0.500010 0.750000 0.750000 -0.483872
O4    O     O_3   0.500010 0.750000 0.250000 -0.481226
O5    O     O_3   0.000010 0.250000 0.750000 -0.484919
O6    O     O_3   0.000010 0.250000 0.250000 -0.479204
O7    O     O_3   0.000010 0.750000 0.250000 -0.482366
O8    O     O_3   0.000010 0.750000 0.750000 -0.486077
O9    O     O_R   0.469630 0.168010 0.219620 -0.651388
O10   O     O_R   0.469630 0.168010 0.780380 -0.651131
O11   O     O_R   0.469630 0.831990 0.780380 -0.638753
O12   O     O_R   0.469630 0.831990 0.219620 -0.639138
O13   O     O_R   0.469630 0.668010 0.719620 -0.644393
O14   O     O_R   0.469630 0.668010 0.280380 -0.643395
O15   O     O_R   0.469630 0.331990 0.280380 -0.609686
O16   O     O_R   0.469630 0.331990 0.719620 -0.617767
O17   O     O_R   0.969630 0.168010 0.719620 -0.656489
O18   O     O_R   0.969630 0.168010 0.280380 -0.643079
O19   O     O_R   0.969630 0.831990 0.280380 -0.637753
O20   O     O_R   0.969630 0.831990 0.719620 -0.638096
O21   O     O_R   0.969630 0.668010 0.219620 -0.649900
O22   O     O_R   0.969630 0.668010 0.780380 -0.635511
O23   O     O_R   0.969630 0.331990 0.780380 -0.643816
O24   O     O_R   0.969630 0.331990 0.219620 -0.640278
O25   O     O_R   0.530360 0.228500 0.365800 -0.682174
O26   O     O_R   0.530360 0.228500 0.634200 -0.662865
O27   O     O_R   0.530360 0.771500 0.634200 -0.603425
O28   O     O_R   0.530360 0.771500 0.365800 -0.618588
O29   O     O_R   0.530360 0.728500 0.865800 -0.659464
O30   O     O_R   0.530360 0.728500 0.134200 -0.637385
O31   O     O_R   0.530360 0.271500 0.134200 -0.647438
O32   O     O_R   0.530360 0.271500 0.865800 -0.664801
O33   O     O_R   0.030360 0.228500 0.865800 -0.653546
O34   O     O_R   0.030360 0.228500 0.134200 -0.645275
O35   O     O_R   0.030360 0.771500 0.134200 -0.649473
O36   O     O_R   0.030360 0.771500 0.865800 -0.631638
O37   O     O_R   0.030360 0.728500 0.365800 -0.614265
O38   O     O_R   0.030360 0.728500 0.634200 -0.645676
O39   O     O_R   0.030360 0.271500 0.634200 -0.609306
O40   O     O_R   0.030360 0.271500 0.365800 -0.601447
O41   O     O_R   0.615810 0.228490 0.280360 -0.656649
O42   O     O_R   0.615810 0.228490 0.719640 -0.636125
O43   O     O_R   0.615810 0.771510 0.719640 -0.647868
O44   O     O_R   0.615810 0.771510 0.280360 -0.646281
O45   O     O_R   0.615810 0.728490 0.780360 -0.645177
O46   O     O_R   0.615810 0.728490 0.219640 -0.650971
O47   O     O_R   0.615810 0.271510 0.219640 -0.662808
O48   O     O_R   0.615810 0.271510 0.780360 -0.666435
O49   O     O_R   0.115810 0.228490 0.780360 -0.640207
O50   O     O_R   0.115810 0.228490 0.219640 -0.635987
O51   O     O_R   0.115810 0.771510 0.219640 -0.643658
O52   O     O_R   0.115810 0.771510 0.780360 -0.647212
O53   O     O_R   0.115810 0.728490 0.280360 -0.621796
O54   O     O_R   0.115810 0.728490 0.719640 -0.652310
O55   O     O_R   0.115810 0.271510 0.719640 -0.641723
O56   O     O_R   0.115810 0.271510 0.280360 -0.652625
O57   O     O_R   0.384200 0.228500 0.219630 -0.629999
O58   O     O_R   0.384200 0.228500 0.780370 -0.641750
O59   O     O_R   0.384200 0.771500 0.780370 -0.654764
O60   O     O_R   0.384200 0.771500 0.219630 -0.644080
O61   O     O_R   0.384200 0.728500 0.719630 -0.645606
O62   O     O_R   0.384200 0.728500 0.280370 -0.648457
O63   O     O_R   0.384200 0.271500 0.280370 -0.646507
O64   O     O_R   0.384200 0.271500 0.719630 -0.637404
O65   O     O_R   0.884200 0.228500 0.719630 -0.655613
O66   O     O_R   0.884200 0.228500 0.280370 -0.663648
O67   O     O_R   0.884200 0.771500 0.280370 -0.643648
O68   O     O_R   0.884200 0.771500 0.719630 -0.640906
O69   O     O_R   0.884200 0.728500 0.219630 -0.668559
O70   O     O_R   0.884200 0.728500 0.780370 -0.647364
O71   O     O_R   0.884200 0.271500 0.780370 -0.652382
O72   O     O_R   0.884200 0.271500 0.219630 -0.643400
O73   O     O_R   0.469650 0.271490 0.365810 -0.593171
O74   O     O_R   0.469650 0.271490 0.634190 -0.602412
O75   O     O_R   0.469650 0.728510 0.634190 -0.664921
O76   O     O_R   0.469650 0.728510 0.365810 -0.654761
O77   O     O_R   0.469650 0.771490 0.865810 -0.610076
O78   O     O_R   0.469650 0.771490 0.134190 -0.638309
O79   O     O_R   0.469650 0.228510 0.134190 -0.619941
O80   O     O_R   0.469650 0.228510 0.865810 -0.610414
O81   O     O_R   0.969650 0.271490 0.865810 -0.610938
O82   O     O_R   0.969650 0.271490 0.134190 -0.641974
O83   O     O_R   0.969650 0.728510 0.134190 -0.608938
O84   O     O_R   0.969650 0.728510 0.865810 -0.641560
O85   O     O_R   0.969650 0.771490 0.365810 -0.649329
O86   O     O_R   0.969650 0.771490 0.634190 -0.637112
O87   O     O_R   0.969650 0.228510 0.634190 -0.656834
O88   O     O_R   0.969650 0.228510 0.365810 -0.662941
O89   O     O_R   0.530350 0.168010 0.280340 -0.641299
O90   O     O_R   0.530350 0.168010 0.719660 -0.638207
O91   O     O_R   0.530350 0.831990 0.719660 -0.613583
O92   O     O_R   0.530350 0.831990 0.280340 -0.625043
O93   O     O_R   0.530350 0.668010 0.780340 -0.628772
O94   O     O_R   0.530350 0.668010 0.219660 -0.647250
O95   O     O_R   0.530350 0.331990 0.219660 -0.651724
O96   O     O_R   0.530350 0.331990 0.780340 -0.650393
O97   O     O_R   0.030350 0.168010 0.780340 -0.627560
O98   O     O_R   0.030350 0.168010 0.219660 -0.647185
O99   O     O_R   0.030350 0.831990 0.219660 -0.645862
O100  O     O_R   0.030350 0.831990 0.780340 -0.636240
O101  O     O_R   0.030350 0.668010 0.280340 -0.634388
O102  O     O_R   0.030350 0.668010 0.719660 -0.645239
O103  O     O_R   0.030350 0.331990 0.719660 -0.615382
O104  O     O_R   0.030350 0.331990 0.280340 -0.617492
Zn1   Zn    Zn3+2 0.456640 0.280700 0.293380 1.007676
Zn2   Zn    Zn3+2 0.456640 0.280700 0.706620 0.993749
Zn3   Zn    Zn3+2 0.456640 0.719300 0.706620 0.945017
Zn4   Zn    Zn3+2 0.456640 0.719300 0.293380 0.957998
Zn5   Zn    Zn3+2 0.456640 0.780700 0.793380 0.966998
Zn6   Zn    Zn3+2 0.456640 0.780700 0.206620 0.985176
Zn7   Zn    Zn3+2 0.456640 0.219300 0.206620 0.984649
Zn8   Zn    Zn3+2 0.456640 0.219300 0.793380 0.962249
Zn9   Zn    Zn3+2 0.956640 0.280700 0.793380 0.964004
Zn10  Zn    Zn3+2 0.956640 0.280700 0.206620 0.975432
Zn11  Zn    Zn3+2 0.956640 0.719300 0.206620 0.947131
Zn12  Zn    Zn3+2 0.956640 0.719300 0.793380 0.959719
Zn13  Zn    Zn3+2 0.956640 0.780700 0.293380 0.962501
Zn14  Zn    Zn3+2 0.956640 0.780700 0.706620 0.964576
Zn15  Zn    Zn3+2 0.956640 0.219300 0.706620 0.939895
Zn16  Zn    Zn3+2 0.956640 0.219300 0.293380 0.946831
Zn17  Zn    Zn3+2 0.543380 0.219280 0.293370 0.924880
Zn18  Zn    Zn3+2 0.543380 0.219280 0.706630 0.962600
Zn19  Zn    Zn3+2 0.543380 0.780720 0.706630 0.987892
Zn20  Zn    Zn3+2 0.543380 0.780720 0.293370 0.997954
Zn21  Zn    Zn3+2 0.543380 0.719280 0.793370 0.958228
Zn22  Zn    Zn3+2 0.543380 0.719280 0.206630 0.966386
Zn23  Zn    Zn3+2 0.543380 0.280720 0.206630 0.962438
Zn24  Zn    Zn3+2 0.543380 0.280720 0.793370 0.944505
Zn25  Zn    Zn3+2 0.043380 0.219280 0.793370 0.965231
Zn26  Zn    Zn3+2 0.043380 0.219280 0.206630 0.966343
Zn27  Zn    Zn3+2 0.043380 0.780720 0.206630 0.965812
Zn28  Zn    Zn3+2 0.043380 0.780720 0.793370 0.973303
Zn29  Zn    Zn3+2 0.043380 0.719280 0.293370 1.002469
Zn30  Zn    Zn3+2 0.043380 0.719280 0.706630 0.950111
Zn31  Zn    Zn3+2 0.043380 0.280720 0.706630 0.998131
Zn32  Zn    Zn3+2 0.043380 0.280720 0.293370 1.004169
H81   H     H_    0.300544 0.373433 0.206804 0.139022
H82   H     H_    0.298227 0.176263 0.602867 0.144188
H83   H     H_    0.299917 0.751070 0.572264 0.157809
H84   H     H_    0.298479 0.872797 0.300560 0.135414
H85   H     H_    0.299507 0.745430 0.927525 0.146207
H86   H     H_    0.296824 0.632990 0.176327 0.136308
H87   H     H_    0.295861 0.127748 0.303329 0.162656
H88   H     H_    0.297103 0.325216 0.892668 0.155519
H89   H     H_    0.794459 0.311341 0.907095 0.151582
H90   H     H_    0.797635 0.286768 0.079923 0.140550
H91   H     H_    0.799232 0.624794 0.283944 0.154827
H92   H     H_    0.795898 0.787100 0.920536 0.154335
H93   H     H_    0.798064 0.873808 0.207526 0.137129
H94   H     H_    0.797178 0.713272 0.578867 0.153354
H95   H     H_    0.792779 0.170333 0.609023 0.158925
H96   H     H_    0.784866 0.170064 0.391770 0.159497
O105  O     O_3   0.405002 0.462590 0.258822 -0.585090
C369  C     C_3   0.371735 0.442487 0.225484 0.114665
H97   H     H_    0.347867 0.423691 0.249610 0.152829
H98   H     H_    0.393698 0.424276 0.198429 0.116680
C370  C     C_3   0.335588 0.468637 0.196263 -0.402689
H99   H     H_    0.309787 0.482922 0.224209 0.214290
H100  H     H_    0.358149 0.490035 0.175307 0.207702
C371  C     C_3   0.302866 0.447835 0.156849 -0.950778
H101  H     H_    0.327426 0.430767 0.130856 0.260254
H102  H     H_    0.281430 0.468130 0.133226 0.268298
H103  H     H_    0.274465 0.429816 0.176549 0.284711
O106  O     O_3   0.513497 0.460865 0.657576 -0.580289
C372  C     C_3   0.484750 0.448586 0.614473 0.103105
H104  H     H_    0.510115 0.450585 0.580036 0.157767
H105  H     H_    0.450739 0.466348 0.606628 0.111262
C373  C     C_3   0.468403 0.407926 0.621076 -0.356254
H106  H     H_    0.503048 0.390583 0.627277 0.252140
H107  H     H_    0.442861 0.405253 0.655274 0.223475
C374  C     C_3   0.439652 0.393512 0.573878 -0.903182
H108  H     H_    0.403264 0.409099 0.568914 0.254170
H109  H     H_    0.430325 0.363601 0.578964 0.286427
H110  H     H_    0.463654 0.396643 0.538667 0.263916
O107  O     O_3   0.523097 0.531741 0.657546 -0.582925
C375  C     C_3   0.505978 0.560547 0.624919 0.117727
H111  H     H_    0.540565 0.575854 0.611178 0.156530
H112  H     H_    0.481492 0.581303 0.645326 0.124373
C376  C     C_3   0.477617 0.544513 0.578147 -0.380540
H113  H     H_    0.501680 0.522817 0.559385 0.231038
H114  H     H_    0.440850 0.531614 0.590831 0.201861
C377  C     C_3   0.465762 0.574612 0.538874 -0.935735
H115  H     H_    0.443110 0.597321 0.557057 0.271732
H116  H     H_    0.443063 0.562437 0.506778 0.267072
H117  H     H_    0.502009 0.586189 0.522774 0.262434
O108  O     O_3   0.415949 0.531400 0.285146 -0.587702
C378  C     C_3   0.367491 0.546847 0.273505 0.149191
H118  H     H_    0.338665 0.532678 0.298387 0.174728
H119  H     H_    0.354653 0.542420 0.233135 0.087179
C379  C     C_3   0.367773 0.588455 0.286100 -0.372635
H120  H     H_    0.389431 0.593653 0.322271 0.251737
H121  H     H_    0.387251 0.603727 0.254397 0.208619
C380  C     C_3   0.313238 0.603221 0.292943 -0.923012
H122  H     H_    0.289621 0.596333 0.258669 0.268211
H123  H     H_    0.314448 0.633857 0.298227 0.285209
H124  H     H_    0.294929 0.590715 0.327521 0.262534
O109  O     O_3   0.424780 0.965197 0.809419 -0.587728
C381  C     C_3   0.388519 0.935852 0.804815 0.111024
H125  H     H_    0.391598 0.918664 0.839985 0.157868
H126  H     H_    0.396440 0.916951 0.771597 0.127195
C382  C     C_3   0.333788 0.951147 0.801611 -0.381896
H127  H     H_    0.326824 0.970555 0.834354 0.230259
H128  H     H_    0.329193 0.966614 0.765049 0.201309
C383  C     C_3   0.293837 0.919971 0.803433 -0.933671
H129  H     H_    0.300352 0.899860 0.771490 0.264954
H130  H     H_    0.254752 0.931873 0.799451 0.267102
H131  H     H_    0.295835 0.905158 0.840747 0.267514
O110  O     O_3   0.520852 0.962017 0.158518 -0.578199
C384  C     C_3   0.496749 0.950888 0.112072 0.133941
H132  H     H_    0.524930 0.954949 0.080282 0.159776
H133  H     H_    0.462640 0.968069 0.102436 0.106735
C385  C     C_3   0.482054 0.909633 0.114120 -0.356430
H134  H     H_    0.517045 0.892854 0.121360 0.240008
H135  H     H_    0.454378 0.904841 0.146149 0.224216
C386  C     C_3   0.457464 0.896707 0.063800 -0.948635
H136  H     H_    0.420648 0.911499 0.057547 0.260244
H137  H     H_    0.449534 0.866380 0.065519 0.279852
H138  H     H_    0.483660 0.902180 0.030791 0.259566
O111  O     O_3   0.523794 0.033182 0.156916 -0.585272
C387  C     C_3   0.505949 0.062775 0.126056 0.113877
H139  H     H_    0.539938 0.079788 0.114925 0.161172
H140  H     H_    0.479278 0.081827 0.146903 0.126359
C388  C     C_3   0.480437 0.047835 0.077063 -0.377362
H141  H     H_    0.507164 0.028560 0.056862 0.230050
H142  H     H_    0.444866 0.032336 0.087386 0.201260
C389  C     C_3   0.466309 0.079344 0.040752 -0.937896
H143  H     H_    0.439058 0.098733 0.059963 0.266569
H144  H     H_    0.447662 0.067672 0.005796 0.268300
H145  H     H_    0.501336 0.094915 0.028815 0.265288
O112  O     O_3   0.427295 0.036332 0.809472 -0.581066
C390  C     C_3   0.375495 0.048309 0.809340 0.137687
H146  H     H_    0.359884 0.044554 0.848881 0.159969
H147  H     H_    0.350585 0.031417 0.783325 0.108577
C391  C     C_3   0.372569 0.089604 0.795609 -0.366056
H148  H     H_    0.396491 0.106026 0.822957 0.246633
H149  H     H_    0.387768 0.093960 0.756044 0.213684
C392  C     C_3   0.317354 0.103665 0.797997 -0.954156
H150  H     H_    0.293239 0.088611 0.769416 0.265543
H151  H     H_    0.316717 0.133801 0.788999 0.276470
H152  H     H_    0.300939 0.099521 0.837127 0.263426
O113  O     O_3   0.928220 0.462816 0.813427 -0.590856
C393  C     C_3   0.891100 0.434067 0.808012 0.110404
H153  H     H_    0.896042 0.414782 0.840722 0.154611
H154  H     H_    0.896487 0.417143 0.772325 0.126183
C394  C     C_3   0.836509 0.449785 0.810310 -0.401051
H155  H     H_    0.830835 0.464781 0.847449 0.227709
H156  H     H_    0.830974 0.469743 0.778369 0.205844
C395  C     C_3   0.796252 0.418920 0.805619 -0.898377
H157  H     H_    0.800797 0.403896 0.768369 0.258298
H158  H     H_    0.757159 0.431161 0.807227 0.270112
H159  H     H_    0.799984 0.398881 0.837706 0.276167
O114  O     O_3   0.014981 0.460388 0.158055 -0.577908
C396  C     C_3   0.988086 0.445419 0.115252 0.115474
H160  H     H_    0.012978 0.449045 0.080735 0.162695
H161  H     H_    0.951461 0.460002 0.107047 0.102967
C397  C     C_3   0.977716 0.403847 0.122453 -0.345674
H162  H     H_    0.014429 0.389379 0.130660 0.244419
H163  H     H_    0.951036 0.399800 0.155478 0.222607
C398  C     C_3   0.953354 0.386644 0.074488 -0.945939
H164  H     H_    0.915484 0.399562 0.067100 0.262496
H165  H     H_    0.947663 0.356336 0.080231 0.282140
H166  H     H_    0.978501 0.390879 0.040348 0.263311
O115  O     O_3   0.018645 0.531645 0.154666 -0.587326
C399  C     C_3   0.996756 0.557066 0.119653 0.134106
H167  H     H_    0.028852 0.572759 0.101542 0.156235
H168  H     H_    0.972056 0.578000 0.139349 0.125190
C400  C     C_3   0.967048 0.536458 0.077215 -0.375484
H169  H     H_    0.993099 0.516454 0.057548 0.229033
H170  H     H_    0.934306 0.521008 0.094483 0.201140
C401  C     C_3   0.945340 0.562924 0.037365 -0.964038
H171  H     H_    0.916540 0.581412 0.055755 0.265392
H172  H     H_    0.925908 0.546686 0.006533 0.267473
H173  H     H_    0.976474 0.579714 0.019548 0.267959
O116  O     O_3   0.941077 0.533517 0.821883 -0.585560
C402  C     C_3   0.891148 0.546181 0.834697 0.141828
H174  H     H_    0.884949 0.540931 0.876393 0.162523
H175  H     H_    0.860245 0.530712 0.813997 0.113081
C403  C     C_3   0.886915 0.588041 0.825145 -0.370115
H176  H     H_    0.918531 0.602810 0.845557 0.246592
H177  H     H_    0.890690 0.593682 0.783286 0.216378
C404  C     C_3   0.835447 0.603183 0.844093 -0.944273
H178  H     H_    0.803269 0.589098 0.823723 0.260400
H179  H     H_    0.833532 0.633460 0.836298 0.280640
H180  H     H_    0.831189 0.598819 0.886221 0.260197
O117  O     O_3   0.906251 0.965954 0.223281 -0.583121
C405  C     C_3   0.887636 0.937648 0.189991 0.116929
H181  H     H_    0.859154 0.921139 0.212158 0.153960
H182  H     H_    0.918192 0.917913 0.177481 0.114284
C406  C     C_3   0.860795 0.954367 0.143154 -0.383091
H183  H     H_    0.830486 0.973950 0.156388 0.228528
H184  H     H_    0.889197 0.969922 0.119464 0.201452
C407  C     C_3   0.836245 0.924306 0.109494 -0.948712
H185  H     H_    0.865459 0.903617 0.097170 0.254741
H186  H     H_    0.819602 0.937205 0.074636 0.268994
H187  H     H_    0.804895 0.910011 0.130827 0.273571
O118  O     O_3   0.033429 0.964410 0.661944 -0.584994
C408  C     C_3   0.017914 0.954223 0.611542 0.155212
H188  H     H_    0.046888 0.965591 0.584207 0.162468
H189  H     H_    0.980083 0.965764 0.599862 0.101265
C409  C     C_3   0.017410 0.911907 0.606416 -0.376825
H190  H     H_    0.055820 0.901307 0.617164 0.229826
H191  H     H_    0.988236 0.900029 0.633136 0.230317
C410  C     C_3   0.005481 0.899343 0.551488 -0.963018
H192  H     H_    0.966884 0.909260 0.539871 0.267981
H193  H     H_    0.005880 0.868497 0.549354 0.275164
H194  H     H_    0.034887 0.910299 0.524276 0.261925
O119  O     O_3   0.026694 0.035366 0.657278 -0.587312
C411  C     C_3   0.006290 0.063243 0.624957 0.117529
H195  H     H_    0.038718 0.081384 0.612649 0.160330
H196  H     H_    0.978335 0.081622 0.645290 0.126904
C412  C     C_3   0.981701 0.045963 0.576872 -0.395361
H197  H     H_    0.010347 0.028270 0.556565 0.222741
H198  H     H_    0.948414 0.028345 0.588244 0.204698
C413  C     C_3   0.962925 0.075746 0.539975 -0.932812
H199  H     H_    0.935018 0.094404 0.559627 0.267136
H200  H     H_    0.943640 0.062321 0.506596 0.263891
H201  H     H_    0.995872 0.092385 0.525436 0.268518
O120  O     O_3   0.909089 0.037052 0.225340 -0.581658
C414  C     C_3   0.880107 0.050365 0.183325 0.153272
H202  H     H_    0.838790 0.047452 0.193673 0.161468
H203  H     H_    0.885987 0.033828 0.147402 0.102342
C415  C     C_3   0.891946 0.091528 0.173799 -0.382847
H204  H     H_    0.887062 0.107442 0.210323 0.238143
H205  H     H_    0.932377 0.094733 0.160494 0.209321
C416  C     C_3   0.856463 0.107682 0.133124 -0.987031
H206  H     H_    0.861016 0.092403 0.096082 0.260665
H207  H     H_    0.866354 0.137380 0.126864 0.262586
H208  H     H_    0.815750 0.105833 0.146045 0.270701
O121  O     O_3   0.426050 0.299105 0.107471 -0.657563
C417  C     C_3   0.426441 0.338358 0.113340 0.055897
H209  H     H_    0.424318 0.344568 0.155270 0.144202
H210  H     H_    0.392111 0.351704 0.096252 0.132142
C418  C     C_3   0.476103 0.355912 0.092024 -0.335051
H211  H     H_    0.509765 0.344793 0.112995 0.255721
H212  H     H_    0.480666 0.348975 0.050497 0.210890
C419  C     C_3   0.475126 0.398142 0.097877 -0.998879
H213  H     H_    0.471524 0.406117 0.139085 0.254073
H214  H     H_    0.442278 0.409888 0.076279 0.267776
H215  H     H_    0.511292 0.410172 0.082237 0.272304
O122  O     O_3   0.390631 0.256079 0.903880 -0.647348
C420  C     C_3   0.352305 0.227784 0.906897 0.119445
H216  H     H_    0.333992 0.225242 0.868564 0.181932
H217  H     H_    0.320468 0.234620 0.934085 0.112271
C421  C     C_3   0.375416 0.189869 0.920212 -0.325021
H218  H     H_    0.401965 0.180867 0.888978 0.256545
H219  H     H_    0.397331 0.191852 0.956747 0.217424
C422  C     C_3   0.333418 0.160442 0.926229 -0.985313
H220  H     H_    0.310236 0.158390 0.890520 0.270868
H221  H     H_    0.307733 0.167634 0.959095 0.269376
H222  H     H_    0.351198 0.133007 0.933682 0.272431
O123  O     O_3   0.504170 0.829303 0.904146 -0.634795
C423  C     C_3   0.462724 0.854704 0.909569 0.124342
H223  H     H_    0.452102 0.863997 0.870381 0.182023
H224  H     H_    0.474105 0.880330 0.930924 0.109540
C424  C     C_3   0.414963 0.836831 0.934773 -0.360455
H225  H     H_    0.404141 0.811039 0.913740 0.254834
H226  H     H_    0.423414 0.829538 0.975366 0.211369
C425  C     C_3   0.369246 0.863203 0.934466 -0.953178
H227  H     H_    0.357594 0.868965 0.894262 0.259928
H228  H     H_    0.379183 0.889719 0.954267 0.265528
H229  H     H_    0.336220 0.850159 0.954863 0.277737
O124  O     O_3   0.581329 0.799222 0.099106 -0.660071
C426  C     C_3   0.635388 0.805762 0.096762 0.031918
H230  H     H_    0.645220 0.827576 0.125580 0.183151
H231  H     H_    0.650128 0.815465 0.058735 0.150735
C427  C     C_3   0.664165 0.770146 0.109597 -0.330330
H232  H     H_    0.654823 0.762318 0.149394 0.249462
H233  H     H_    0.651416 0.747220 0.083828 0.223359
C428  C     C_3   0.722402 0.775053 0.104712 -0.961604
H234  H     H_    0.735779 0.798886 0.128453 0.281299
H235  H     H_    0.733668 0.780095 0.064084 0.257756
H236  H     H_    0.741884 0.749500 0.118123 0.272241
O125  O     O_3   0.468654 0.822070 0.606489 -0.634976
C429  C     C_3   0.418182 0.817778 0.626481 0.093897
H237  H     H_    0.420828 0.799539 0.660736 0.147686
H238  H     H_    0.390715 0.804019 0.599321 0.100977
C430  C     C_3   0.396833 0.855432 0.643886 -0.372868
H239  H     H_    0.425530 0.870006 0.668371 0.218863
H240  H     H_    0.389152 0.872923 0.609753 0.209294
C431  C     C_3   0.346904 0.850858 0.674375 -0.963445
H241  H     H_    0.353691 0.834532 0.709856 0.271103
H242  H     H_    0.317396 0.836577 0.650517 0.271133
H243  H     H_    0.332154 0.878661 0.685612 0.260261
O126  O     O_3   0.441424 0.810687 0.396205 -0.655660
C432  C     C_3   0.386927 0.812659 0.394748 0.022995
H244  H     H_    0.376001 0.819756 0.354935 0.153229
H245  H     H_    0.371013 0.835333 0.419413 0.144104
C433  C     C_3   0.361876 0.775253 0.408669 -0.342456
H246  H     H_    0.371899 0.754208 0.378886 0.255065
H247  H     H_    0.376413 0.765474 0.446349 0.215990
C434  C     C_3   0.303451 0.778420 0.412484 -0.949271
H248  H     H_    0.287209 0.788145 0.375592 0.271900
H249  H     H_    0.292584 0.798177 0.443695 0.264729
H250  H     H_    0.286570 0.750792 0.421447 0.276599
O127  O     O_3   0.543117 0.317810 0.392833 -0.639129
C435  C     C_3   0.593457 0.308013 0.376810 0.070201
H251  H     H_    0.589901 0.293756 0.338926 0.161154
H252  H     H_    0.612557 0.287918 0.403088 0.116532
C436  C     C_3   0.627038 0.342772 0.369776 -0.380518
H253  H     H_    0.605666 0.363826 0.347295 0.238565
H254  H     H_    0.636615 0.354838 0.408005 0.211414
C437  C     C_3   0.677147 0.333707 0.341723 -0.958126
H255  H     H_    0.669056 0.323997 0.301920 0.262936
H256  H     H_    0.698494 0.311924 0.362697 0.273012
H257  H     H_    0.701596 0.359031 0.339558 0.267382
O128  O     O_3   0.546636 0.317167 0.606584 -0.642613
C438  C     C_3   0.599726 0.316295 0.618348 0.009391
H258  H     H_    0.624619 0.329979 0.588773 0.146526
H259  H     H_    0.611678 0.286880 0.621562 0.132922
C439  C     C_3   0.608828 0.335858 0.669860 -0.307004
H260  H     H_    0.589201 0.363243 0.670111 0.227500
H261  H     H_    0.592307 0.318628 0.701153 0.218865
C440  C     C_3   0.666089 0.342086 0.679645 -0.972805
H262  H     H_    0.682226 0.361880 0.651088 0.265989
H263  H     H_    0.687334 0.315498 0.676604 0.260270
H264  H     H_    0.671612 0.353960 0.718795 0.271280
O129  O     O_3   0.952013 0.316060 0.606743 -0.642053
C441  C     C_3   0.898686 0.314638 0.617903 0.017440
H265  H     H_    0.884649 0.285504 0.613640 0.153104
H266  H     H_    0.875561 0.332853 0.592336 0.137506
C442  C     C_3   0.889910 0.327659 0.673260 -0.289701
H267  H     H_    0.910129 0.308540 0.699543 0.233636
H268  H     H_    0.906416 0.355990 0.678434 0.200651
C443  C     C_3   0.832718 0.328640 0.686895 -0.955369
H269  H     H_    0.814460 0.301250 0.679072 0.264118
H270  H     H_    0.812977 0.350161 0.663856 0.256480
H271  H     H_    0.827862 0.335495 0.728399 0.275269
O130  O     O_3   0.953311 0.314772 0.392951 -0.645012
C444  C     C_3   0.901554 0.321814 0.379063 0.048217
H272  H     H_    0.900664 0.324805 0.336504 0.158803
H273  H     H_    0.887217 0.348593 0.394986 0.126474
C445  C     C_3   0.865318 0.289675 0.393845 -0.366270
H274  H     H_    0.878538 0.263591 0.375088 0.256668
H275  H     H_    0.865465 0.285603 0.436229 0.205859
C446  C     C_3   0.810311 0.297591 0.377229 -0.951854
H276  H     H_    0.808368 0.300904 0.334782 0.268213
H277  H     H_    0.795960 0.323279 0.396284 0.262599
H278  H     H_    0.785091 0.274093 0.388665 0.274947
O131  O     O_3   0.076670 0.796120 0.390510 -0.657904
C447  C     C_3   0.079976 0.834538 0.378649 0.072538
H279  H     H_    0.080507 0.836959 0.336035 0.158195
H280  H     H_    0.116530 0.847271 0.392025 0.165082
C448  C     C_3   0.033593 0.856620 0.399110 -0.372708
H281  H     H_    0.997875 0.845991 0.380852 0.256750
H282  H     H_    0.029735 0.853397 0.441482 0.215083
C449  C     C_3   0.039745 0.897918 0.387517 -0.936222
H283  H     H_    0.045901 0.902220 0.345664 0.281574
H284  H     H_    0.073160 0.909564 0.408790 0.262593
H285  H     H_    0.004563 0.913010 0.399782 0.260065
O132  O     O_3   0.084608 0.793937 0.604833 -0.664922
C450  C     C_3   0.114945 0.824429 0.621877 -0.002699
H286  H     H_    0.111191 0.848957 0.596123 0.144487
H287  H     H_    0.155914 0.816038 0.624132 0.163467
C451  C     C_3   0.097059 0.836221 0.675147 -0.295627
H288  H     H_    0.058461 0.848568 0.671139 0.209655
H289  H     H_    0.094179 0.811540 0.700313 0.236968
C452  C     C_3   0.133433 0.864726 0.699334 -0.936675
H290  H     H_    0.136557 0.889753 0.674660 0.260668
H291  H     H_    0.172205 0.852482 0.704444 0.264508
H292  H     H_    0.118403 0.873291 0.737682 0.279679
O133  O     O_3   0.981196 0.669087 0.090279 -0.623911
C453  C     C_3   0.929496 0.665688 0.073720 0.106706
H293  H     H_    0.926307 0.645215 0.041531 0.127593
H294  H     H_    0.914648 0.692942 0.060257 0.147295
C454  C     C_3   0.895705 0.652754 0.118598 -0.286566
H295  H     H_    0.910479 0.626139 0.133847 0.206964
H296  H     H_    0.896952 0.673805 0.149937 0.279674
C455  C     C_3   0.839885 0.647418 0.102184 -1.006470
H297  H     H_    0.837139 0.625937 0.071399 0.264217
H298  H     H_    0.823947 0.673996 0.087858 0.270988
H299  H     H_    0.816532 0.638224 0.135746 0.274538
O134  O     O_3   0.069378 0.694396 0.898183 -0.658117
C456  C     C_3   0.091856 0.662709 0.874815 0.022769
H300  H     H_    0.062738 0.640032 0.871123 0.155346
H301  H     H_    0.125814 0.653434 0.897204 0.135110
C457  C     C_3   0.111436 0.672649 0.821294 -0.296162
H302  H     H_    0.080402 0.686418 0.799607 0.235382
H303  H     H_    0.143903 0.692328 0.824991 0.198026
C458  C     C_3   0.130512 0.638463 0.791941 -0.931887
H304  H     H_    0.099578 0.617252 0.788694 0.259990
H305  H     H_    0.163840 0.626103 0.812094 0.252314
H306  H     H_    0.142869 0.646668 0.752602 0.278888
O135  O     O_3   0.003202 0.329412 0.904533 -0.630090
C459  C     C_3   0.962770 0.355556 0.910790 0.137335
H307  H     H_    0.950807 0.364293 0.871766 0.178671
H308  H     H_    0.975992 0.381304 0.930765 0.113424
C460  C     C_3   0.915435 0.338992 0.938501 -0.372925
H309  H     H_    0.901666 0.313966 0.917329 0.242394
H310  H     H_    0.925727 0.330668 0.978246 0.217512
C461  C     C_3   0.871841 0.367111 0.942281 -0.987632
H311  H     H_    0.857150 0.373515 0.903336 0.268316
H312  H     H_    0.885350 0.393126 0.961210 0.270295
H313  H     H_    0.839843 0.355340 0.965590 0.258231
O136  O     O_3   0.079796 0.299800 0.098147 -0.654361
C462  C     C_3   0.124568 0.279657 0.084172 0.051861
H314  H     H_    0.139048 0.286371 0.045000 0.138050
H315  H     H_    0.116175 0.249366 0.085816 0.181602
C463  C     C_3   0.167712 0.289146 0.121086 -0.319734
H316  H     H_    0.175567 0.319533 0.120163 0.237902
H317  H     H_    0.154549 0.281448 0.159877 0.231421
C464  C     C_3   0.216964 0.268043 0.107993 -0.953222
H318  H     H_    0.230384 0.274898 0.068523 0.250165
H319  H     H_    0.210340 0.237608 0.110924 0.271683
H320  H     H_    0.247775 0.276124 0.135241 0.281765
H321  H     H_    0.342595 0.311597 0.052470 0.166731
H322  H     H_    0.329143 0.294825 0.963560 0.156400
H323  H     H_    0.557770 0.874831 0.961923 0.166761
H324  H     H_    0.587926 0.863542 0.048751 0.171799
H325  H     H_    0.451497 0.876156 0.544214 0.172329
H326  H     H_    0.441389 0.872096 0.451286 0.161804
H327  H     H_    0.560971 0.373450 0.453135 0.172426
H328  H     H_    0.562945 0.373244 0.546651 0.179627
H329  H     H_    0.938234 0.372654 0.547096 0.180635
H330  H     H_    0.940617 0.372770 0.453734 0.176400
H331  H     H_    0.158051 0.810542 0.447309 0.174321
H332  H     H_    0.162479 0.811152 0.538423 0.177125
H333  H     H_    0.041463 0.623893 0.042966 0.166371
H334  H     H_    0.078050 0.631545 0.959603 0.150948
H335  H     H_    0.060209 0.373716 0.961236 0.176986
H336  H     H_    0.090176 0.361643 0.048540 0.189953
H337  H     H_    0.585377 0.221991 0.902923 0.131141
H338  H     H_    0.589283 0.222736 0.093072 0.125441
H339  H     H_    0.460539 0.686764 0.094285 0.117561
H340  H     H_    0.458820 0.688401 0.903968 0.126809
H341  H     H_    0.538336 0.686670 0.404757 0.123653
H342  H     H_    0.537955 0.687214 0.594915 0.124971
H343  H     H_    0.462840 0.187045 0.595133 0.121163
H344  H     H_    0.458860 0.187791 0.405102 0.121416
H345  H     H_    0.039552 0.187225 0.404452 0.121310
H346  H     H_    0.038472 0.187330 0.594586 0.124839
H347  H     H_    0.927437 0.707510 0.596356 0.106158
H348  H     H_    0.920598 0.710537 0.406289 0.108298
H349  H     H_    0.966007 0.814830 0.905638 0.120955
H350  H     H_    0.965441 0.814248 0.095895 0.127314
H351  H     H_    0.961721 0.185508 0.093893 0.121975
H352  H     H_    0.960211 0.187601 0.903547 0.125318
O137  O     O_3   0.707869 0.200584 0.572978 -0.656760
C465  C     C_3   0.727544 0.227563 0.538420 0.089239
H353  H     H_    0.736916 0.213167 0.501774 0.222346
H354  H     H_    0.764203 0.241095 0.551143 0.102383
C466  C     C_3   0.686905 0.257341 0.528587 -0.328856
H355  H     H_    0.649863 0.243924 0.517832 0.237666
H356  H     H_    0.680971 0.273688 0.564423 0.185681
C467  C     C_3   0.703377 0.283878 0.485894 -0.961112
H357  H     H_    0.740556 0.297459 0.495621 0.262551
H358  H     H_    0.673742 0.305721 0.481305 0.256815
H359  H     H_    0.707422 0.268682 0.448816 0.285757
O138  O     O_3   0.693975 0.195476 0.420110 -0.675781
C468  C     C_3   0.653115 0.171244 0.407082 0.072064
H360  H     H_    0.668813 0.143690 0.395348 0.146014
H361  H     H_    0.629216 0.182366 0.375170 0.175652
C469  C     C_3   0.618163 0.166330 0.453963 -0.301726
H362  H     H_    0.640933 0.155839 0.486906 0.247148
H363  H     H_    0.601477 0.193660 0.465005 0.227571
C470  C     C_3   0.574626 0.139067 0.442350 -0.943348
H364  H     H_    0.551830 0.148693 0.408959 0.280348
H365  H     H_    0.548891 0.137140 0.476384 0.284703
H366  H     H_    0.590308 0.111045 0.433685 0.262350
O139  O     O_3   0.696569 0.881010 0.206362 -0.660421
C471  C     C_3   0.698802 0.906959 0.247506 0.068920
H367  H     H_    0.693912 0.935128 0.230990 0.170594
H368  H     H_    0.736641 0.907344 0.267621 0.133094
C472  C     C_3   0.654918 0.899983 0.285969 -0.342199
H369  H     H_    0.617458 0.902568 0.265935 0.235457
H370  H     H_    0.657684 0.871394 0.301602 0.230947
C473  C     C_3   0.656914 0.927613 0.330731 -0.964285
H371  H     H_    0.692825 0.923824 0.353036 0.270294
H372  H     H_    0.623511 0.922902 0.356736 0.275092
H373  H     H_    0.655535 0.956579 0.316287 0.256977
O140  O     O_3   0.696000 0.708161 0.571073 -0.655653
C474  C     C_3   0.690292 0.737770 0.535961 0.057157
H374  H     H_    0.681375 0.725199 0.497820 0.183808
H375  H     H_    0.726411 0.754212 0.530750 0.126783
C475  C     C_3   0.645680 0.763242 0.552042 -0.353244
H376  H     H_    0.612382 0.746026 0.564248 0.240837
H377  H     H_    0.657512 0.780837 0.585286 0.218610
C476  C     C_3   0.629207 0.788420 0.508079 -0.903126
H378  H     H_    0.661972 0.806070 0.495336 0.259744
H379  H     H_    0.597481 0.806712 0.521392 0.271097
H380  H     H_    0.615212 0.771514 0.475011 0.267024
O141  O     O_3   0.691677 0.616981 0.284192 -0.671031
C477  C     C_3   0.717111 0.585769 0.304737 0.085820
H381  H     H_    0.687918 0.569095 0.325920 0.168059
H382  H     H_    0.746281 0.593360 0.334238 0.121704
C478  C     C_3   0.738815 0.561160 0.261344 -0.338037
H383  H     H_    0.706438 0.548319 0.239725 0.242624
H384  H     H_    0.761662 0.578012 0.233729 0.215841
C479  C     C_3   0.772826 0.530494 0.282651 -0.996802
H385  H     H_    0.806513 0.542782 0.302760 0.257305
H386  H     H_    0.786992 0.512719 0.250519 0.262510
H387  H     H_    0.750659 0.512895 0.309956 0.271342
O142  O     O_3   0.694330 0.790404 0.928592 -0.650510
C480  C     C_3   0.684945 0.758740 0.959397 0.026483
H388  H     H_    0.673650 0.769040 0.997974 0.186091
H389  H     H_    0.720073 0.741519 0.964686 0.131214
C481  C     C_3   0.640370 0.735061 0.938385 -0.345029
H390  H     H_    0.608119 0.753578 0.928034 0.240716
H391  H     H_    0.653012 0.719832 0.903242 0.224606
C482  C     C_3   0.621564 0.706720 0.977771 -0.908423
H392  H     H_    0.653712 0.688605 0.989921 0.258255
H393  H     H_    0.591025 0.689085 0.960366 0.280318
H394  H     H_    0.605185 0.721060 0.012013 0.264827
O143  O     O_3   0.708215 0.347836 0.883981 -0.654381
C483  C     C_3   0.690444 0.338140 0.933725 0.049848
H395  H     H_    0.694085 0.363372 0.958240 0.166717
H396  H     H_    0.713554 0.316064 0.952585 0.123717
C484  C     C_3   0.633623 0.326759 0.931973 -0.337481
H397  H     H_    0.611385 0.348395 0.911493 0.236724
H398  H     H_    0.629536 0.300101 0.910496 0.231592
C485  C     C_3   0.611425 0.322185 0.986138 -0.888147
H399  H     H_    0.631689 0.299636 0.006720 0.292098
H400  H     H_    0.569943 0.315042 0.983684 0.261107
H401  H     H_    0.615321 0.348502 0.008391 0.259804
O144  O     O_3   0.708143 0.326377 0.092779 -0.667493
C486  C     C_3   0.743269 0.351137 0.068671 0.059288
H402  H     H_    0.719935 0.370142 0.044877 0.172056
H403  H     H_    0.769053 0.336492 0.041115 0.118366
C487  C     C_3   0.774022 0.375026 0.107364 -0.371200
H404  H     H_    0.748248 0.385023 0.138713 0.229358
H405  H     H_    0.804851 0.358135 0.125002 0.223215
C488  C     C_3   0.798899 0.408417 0.081013 -0.973821
H406  H     H_    0.823403 0.399077 0.048316 0.268877
H407  H     H_    0.823185 0.423862 0.109037 0.262969
H408  H     H_    0.768879 0.427453 0.066397 0.263304
O145  O     O_3   0.194893 0.123860 0.316848 -0.681995
C489  C     C_3   0.199358 0.122662 0.370975 0.042381
H409  H     H_    0.184809 0.148895 0.388847 0.136756
H410  H     H_    0.240139 0.118415 0.382370 0.152922
C490  C     C_3   0.167202 0.090202 0.391240 -0.316248
H411  H     H_    0.126071 0.094789 0.381806 0.218853
H412  H     H_    0.179817 0.064022 0.372134 0.236828
C491  C     C_3   0.172759 0.086145 0.449428 -0.976640
H413  H     H_    0.213315 0.079993 0.459401 0.268740
H414  H     H_    0.148030 0.062931 0.463063 0.268962
H415  H     H_    0.160753 0.112059 0.469452 0.259377
O146  O     O_3   0.197228 0.316423 0.911280 -0.644427
C492  C     C_3   0.202004 0.287978 0.948551 0.059169
H416  H     H_    0.200204 0.301383 0.987020 0.155886
H417  H     H_    0.240032 0.273711 0.947163 0.119670
C493  C     C_3   0.158011 0.259363 0.943957 -0.345776
H418  H     H_    0.121695 0.271951 0.958066 0.215734
H419  H     H_    0.151985 0.251015 0.903324 0.237591
C494  C     C_3   0.169313 0.224025 0.974021 -0.960612
H420  H     H_    0.202402 0.209178 0.956299 0.267541
H421  H     H_    0.135136 0.205414 0.973092 0.278607
H422  H     H_    0.178590 0.230484 0.014664 0.259186
O147  O     O_3   0.198654 0.758351 0.938674 -0.634127
C495  C     C_3   0.197859 0.726337 0.969787 0.061990
H423  H     H_    0.237104 0.720183 0.984253 0.133961
H424  H     H_    0.182778 0.701840 0.947961 0.137914
C496  C     C_3   0.162435 0.733668 0.015918 -0.269219
H425  H     H_    0.175658 0.759018 0.036763 0.232724
H426  H     H_    0.122778 0.738684 0.002017 0.235602
C497  C     C_3   0.161817 0.701115 0.053235 -0.980507
H427  H     H_    0.150612 0.675078 0.033002 0.273842
H428  H     H_    0.133639 0.706549 0.084650 0.270112
H429  H     H_    0.200466 0.697710 0.070480 0.258787
O148  O     O_3   0.192978 0.625891 0.176206 -0.650313
C498  C     C_3   0.207007 0.614023 0.126070 0.057825
H430  H     H_    0.237113 0.592289 0.128845 0.143128
H431  H     H_    0.221843 0.637157 0.101643 0.130883
C499  C     C_3   0.159479 0.597480 0.099924 -0.296803
H432  H     H_    0.145140 0.573395 0.122552 0.239582
H433  H     H_    0.128631 0.618755 0.098925 0.224816
C500  C     C_3   0.171277 0.584729 0.044984 -0.992674
H434  H     H_    0.184811 0.608519 0.021373 0.259788
H435  H     H_    0.135843 0.573127 0.027265 0.266651
H436  H     H_    0.201264 0.562847 0.045065 0.269212
O149  O     O_3   0.201484 0.741584 0.560021 -0.658412
C501  C     C_3   0.165657 0.711828 0.561206 0.081290
H437  H     H_    0.129408 0.720973 0.580117 0.181291
H438  H     H_    0.181170 0.687298 0.582058 0.135304
C502  C     C_3   0.153348 0.699750 0.506056 -0.312716
H439  H     H_    0.141731 0.724218 0.483171 0.247118
H440  H     H_    0.188303 0.687632 0.487897 0.222357
C503  C     C_3   0.109863 0.671116 0.504824 -0.949863
H441  H     H_    0.120728 0.646051 0.526949 0.257448
H442  H     H_    0.102123 0.662758 0.464351 0.277128
H443  H     H_    0.074136 0.683110 0.521530 0.273002
O150  O     O_3   0.193853 0.876301 0.316520 -0.679542
C504  C     C_3   0.216762 0.896140 0.357889 0.063153
H444  H     H_    0.188173 0.917180 0.370630 0.190709
H445  H     H_    0.250545 0.912540 0.344682 0.121309
C505  C     C_3   0.230570 0.871012 0.403843 -0.397319
H446  H     H_    0.210441 0.844001 0.400328 0.225627
H447  H     H_    0.272378 0.865007 0.403102 0.211057
C506  C     C_3   0.216506 0.888543 0.455688 -0.947861
H448  H     H_    0.235936 0.915883 0.460329 0.263594
H449  H     H_    0.228848 0.869983 0.487283 0.262571
H450  H     H_    0.174210 0.892351 0.458573 0.263022
O151  O     O_3   0.199476 0.383164 0.213681 -0.657825
C507  C     C_3   0.201894 0.407137 0.257046 0.044115
H451  H     H_    0.199953 0.436146 0.242783 0.172577
H452  H     H_    0.238735 0.405045 0.278763 0.131196
C508  C     C_3   0.155802 0.400390 0.292878 -0.331245
H453  H     H_    0.119569 0.404112 0.271022 0.235342
H454  H     H_    0.156700 0.371479 0.307590 0.228979
C509  C     C_3   0.156395 0.427189 0.338644 -0.955616
H455  H     H_    0.191145 0.422550 0.362415 0.269308
H456  H     H_    0.121725 0.422454 0.362923 0.277126
H457  H     H_    0.156298 0.456423 0.325155 0.256730
O152  O     O_3   0.195882 0.173943 0.593080 -0.657632
C510  C     C_3   0.201615 0.191303 0.544574 0.057928
H458  H     H_    0.187071 0.171439 0.515085 0.175045
H459  H     H_    0.242600 0.196906 0.534500 0.125341
C511  C     C_3   0.169961 0.227198 0.541691 -0.359078
H460  H     H_    0.131095 0.222327 0.558118 0.240731
H461  H     H_    0.188893 0.249383 0.564866 0.213150
C512  C     C_3   0.164687 0.240525 0.486289 -0.913839
H462  H     H_    0.203198 0.246460 0.469480 0.260493
H463  H     H_    0.141478 0.266348 0.485645 0.272046
H464  H     H_    0.144984 0.219106 0.462437 0.263263
H465  H     H_    0.154272 0.185282 0.286760 0.146071
H466  H     H_    0.154839 0.287792 0.829911 0.143830
H467  H     H_    0.157018 0.754621 0.851387 0.206116
H468  H     H_    0.154276 0.685658 0.212263 0.152511
H469  H     H_    0.157259 0.751163 0.650744 0.199687
H470  H     H_    0.155374 0.814691 0.287407 0.150099
H471  H     H_    0.156947 0.320706 0.235984 0.170188
H472  H     H_    0.155064 0.210959 0.668061 0.137477
H473  H     H_    0.666032 0.240093 0.646032 0.155177
H474  H     H_    0.663793 0.243461 0.352184 0.159832
H475  H     H_    0.655377 0.817680 0.226451 0.167077
H476  H     H_    0.655014 0.726161 0.658314 0.147202
H477  H     H_    0.654891 0.680881 0.271644 0.163480
H478  H     H_    0.654520 0.775194 0.840198 0.154660
H479  H     H_    0.669279 0.318456 0.802836 0.190723
H480  H     H_    0.670322 0.309119 0.179166 0.196655
H481  H     H_    0.969019 0.032131 0.170180 -0.026905
H482  H     H_    0.949169 0.028169 0.680751 -0.021436
H483  H     H_    0.954000 0.965865 0.679774 -0.014160
H484  H     H_    0.966755 0.970043 0.168591 -0.021206
H485  H     H_    0.913430 0.533515 0.745236 -0.018072
H486  H     H_    0.942699 0.529082 0.184970 -0.021100
H487  H     H_    0.940713 0.466970 0.190761 -0.029712
H488  H     H_    0.914081 0.471832 0.734301 -0.027860
H489  H     H_    0.417579 0.031598 0.728780 -0.027663
H490  H     H_    0.446466 0.029757 0.182448 -0.015360
H491  H     H_    0.444895 0.967651 0.186899 -0.028212
H492  H     H_    0.416341 0.969446 0.728558 -0.021207
H493  H     H_    0.432255 0.536642 0.205116 -0.020282
H494  H     H_    0.445711 0.530688 0.683570 -0.009909
H495  H     H_    0.440444 0.468841 0.692241 -0.030085
H496  H     H_    0.443037 0.475566 0.188765 -0.032736
O153  O     O_3   0.589630 0.464718 0.221724 -0.582936
C513  C     C_3   0.618640 0.454816 0.177423 0.144991
H497  H     H_    0.660002 0.458985 0.186358 0.151398
H498  H     H_    0.610419 0.472982 0.143883 0.122734
C514  C     C_3   0.609931 0.413771 0.163588 -0.378817
H499  H     H_    0.629181 0.396013 0.192516 0.229032
H500  H     H_    0.568292 0.407048 0.164199 0.239544
C515  C     C_3   0.630839 0.404718 0.110039 -0.958332
H501  H     H_    0.608778 0.419856 0.080335 0.252971
H502  H     H_    0.627036 0.374430 0.102525 0.302710
H503  H     H_    0.671874 0.412929 0.107072 0.268323
O154  O     O_3   0.477305 0.468554 0.842225 -0.583531
C516  C     C_3   0.450236 0.437505 0.862252 0.121607
H504  H     H_    0.477322 0.421934 0.886958 0.163899
H505  H     H_    0.436830 0.417603 0.832137 0.115018
C517  C     C_3   0.404644 0.450243 0.895287 -0.370551
H506  H     H_    0.418050 0.470811 0.924443 0.230578
H507  H     H_    0.375660 0.463720 0.870406 0.201873
C518  C     C_3   0.379292 0.417494 0.922807 -0.953593
H508  H     H_    0.365136 0.396706 0.894337 0.265215
H509  H     H_    0.346131 0.427538 0.946037 0.267376
H510  H     H_    0.407115 0.403991 0.949004 0.264840
O155  O     O_3   0.465610 0.539071 0.836790 -0.579340
C519  C     C_3   0.418594 0.548682 0.861089 0.149042
H511  H     H_    0.424613 0.547571 0.903378 0.152538
H512  H     H_    0.386951 0.528665 0.852329 0.106613
C520  C     C_3   0.403082 0.588328 0.846761 -0.380738
H513  H     H_    0.433955 0.608019 0.858600 0.224889
H514  H     H_    0.398248 0.590417 0.804400 0.219793
C521  C     C_3   0.352696 0.599422 0.872892 -0.988552
H515  H     H_    0.320838 0.581268 0.859230 0.269022
H516  H     H_    0.343524 0.628679 0.863285 0.269088
H517  H     H_    0.355876 0.597009 0.915374 0.256948
O156  O     O_3   0.589742 0.535943 0.214217 -0.596156
C522  C     C_3   0.601234 0.566315 0.181542 0.115404
H518  H     H_    0.626459 0.585727 0.203376 0.200430
H519  H     H_    0.566875 0.582640 0.170148 0.128589
C523  C     C_3   0.630126 0.552917 0.133515 -0.402958
H520  H     H_    0.663694 0.535964 0.145179 0.224261
H521  H     H_    0.604152 0.535342 0.109692 0.208211
C524  C     C_3   0.649057 0.585595 0.101250 -0.926118
H522  H     H_    0.616079 0.602795 0.088736 0.268732
H523  H     H_    0.669466 0.575009 0.066514 0.263380
H524  H     H_    0.676124 0.603147 0.123873 0.267780
O157  O     O_3   0.564902 0.963735 0.683654 -0.578485
C525  C     C_3   0.569594 0.950516 0.632366 0.120514
H525  H     H_    0.610092 0.955137 0.620088 0.167418
H526  H     H_    0.545247 0.965929 0.604633 0.104350
C526  C     C_3   0.557763 0.908789 0.629746 -0.346494
H527  H     H_    0.580646 0.894112 0.659327 0.252546
H528  H     H_    0.516293 0.903933 0.637871 0.218122
C527  C     C_3   0.570763 0.892616 0.576829 -0.919392
H529  H     H_    0.547307 0.906128 0.546676 0.257361
H530  H     H_    0.562443 0.862336 0.576535 0.293531
H531  H     H_    0.612208 0.896739 0.567904 0.256258
O158  O     O_3   0.468549 0.966713 0.339377 -0.588373
C528  C     C_3   0.435780 0.937496 0.355933 0.127014
H532  H     H_    0.456528 0.921931 0.386144 0.165288
H533  H     H_    0.426920 0.917121 0.324742 0.117311
C529  C     C_3   0.385924 0.952890 0.379160 -0.378206
H534  H     H_    0.395168 0.974030 0.409113 0.225801
H535  H     H_    0.362900 0.966131 0.348471 0.197686
C530  C     C_3   0.353467 0.922309 0.403531 -1.004110
H536  H     H_    0.347406 0.899218 0.375647 0.251112
H537  H     H_    0.315588 0.933829 0.415010 0.272579
H538  H     H_    0.372457 0.911577 0.438511 0.264965
O159  O     O_3   0.466181 0.037850 0.336028 -0.583713
C531  C     C_3   0.419956 0.046830 0.362203 0.163833
H539  H     H_    0.426273 0.042107 0.403932 0.154816
H540  H     H_    0.386859 0.028936 0.350773 0.104670
C532  C     C_3   0.406584 0.087738 0.354309 -0.379212
H541  H     H_    0.439182 0.105451 0.367376 0.226423
H542  H     H_    0.400122 0.093080 0.312743 0.214921
C533  C     C_3   0.358091 0.098088 0.384422 -1.030597
H543  H     H_    0.324497 0.082451 0.369127 0.267982
H544  H     H_    0.350862 0.128343 0.380770 0.267604
H545  H     H_    0.362488 0.091454 0.425874 0.264313
O160  O     O_3   0.563701 0.034765 0.679574 -0.585899
C534  C     C_3   0.561042 0.063085 0.642001 0.131405
H546  H     H_    0.595896 0.080792 0.646186 0.172527
H547  H     H_    0.527456 0.081803 0.647643 0.121097
C535  C     C_3   0.560705 0.046342 0.587639 -0.384499
H548  H     H_    0.595074 0.028465 0.582221 0.229834
H549  H     H_    0.525677 0.029000 0.582344 0.202013
C536  C     C_3   0.561079 0.076643 0.546867 -0.950975
H550  H     H_    0.526591 0.094519 0.551242 0.264035
H551  H     H_    0.560513 0.063687 0.507946 0.271633
H552  H     H_    0.596281 0.094074 0.550333 0.276948
O161  O     O_3   0.056753 0.466096 0.675520 -0.581507
C537  C     C_3   0.057719 0.453659 0.623685 0.137966
H553  H     H_    0.096539 0.460013 0.607909 0.168085
H554  H     H_    0.029781 0.468390 0.598758 0.108082
C538  C     C_3   0.048804 0.411573 0.620976 -0.366011
H555  H     H_    0.075771 0.397473 0.647490 0.251717
H556  H     H_    0.008838 0.404925 0.633286 0.218976
C539  C     C_3   0.057327 0.396692 0.566456 -0.920040
H557  H     H_    0.029664 0.409548 0.539478 0.258308
H558  H     H_    0.051556 0.366104 0.565982 0.290765
H559  H     H_    0.097178 0.402776 0.553304 0.258738
O162  O     O_3   0.974940 0.467727 0.341082 -0.584928
C540  C     C_3   0.932506 0.455286 0.370669 0.133559
H560  H     H_    0.922576 0.426283 0.359233 0.121991
H561  H     H_    0.898084 0.473088 0.365329 0.114931
C541  C     C_3   0.947112 0.456209 0.427615 -0.315278
H562  H     H_    0.977111 0.434999 0.434858 0.217470
H563  H     H_    0.963369 0.483963 0.437547 0.235618
C542  C     C_3   0.900559 0.448844 0.462214 -1.028785
H564  H     H_    0.872672 0.472013 0.459187 0.268568
H565  H     H_    0.913183 0.446760 0.502888 0.266610
H566  H     H_    0.881102 0.422501 0.450996 0.261147
O163  O     O_3   0.970162 0.539101 0.336445 -0.586928
C543  C     C_3   0.925712 0.552820 0.361871 0.136115
H567  H     H_    0.932957 0.551622 0.403959 0.160042
H568  H     H_    0.890813 0.535576 0.354649 0.098538
C544  C     C_3   0.915751 0.593294 0.347048 -0.370133
H569  H     H_    0.951131 0.610086 0.353589 0.237697
H570  H     H_    0.905544 0.594777 0.305622 0.206030
C545  C     C_3   0.871857 0.609842 0.378749 -1.000034
H571  H     H_    0.835938 0.593652 0.372602 0.259834
H572  H     H_    0.865272 0.638992 0.366719 0.262672
H573  H     H_    0.881598 0.609672 0.420348 0.271157
O164  O     O_3   0.046415 0.536752 0.665523 -0.588734
C546  C     C_3   0.033264 0.564739 0.629751 0.124989
H574  H     H_    0.066460 0.584176 0.626880 0.166958
H575  H     H_    0.999800 0.581759 0.642489 0.121337
C547  C     C_3   0.023299 0.547855 0.576385 -0.395989
H576  H     H_    0.057692 0.532009 0.563556 0.228190
H577  H     H_    0.989988 0.528466 0.578300 0.204484
C548  C     C_3   0.011782 0.577927 0.536915 -0.933836
H578  H     H_    0.977078 0.593843 0.548605 0.262386
H579  H     H_    0.004573 0.564834 0.498763 0.267428
H580  H     H_    0.044956 0.597298 0.533282 0.269269
O165  O     O_3   0.089992 0.962590 0.260543 -0.584680
C549  C     C_3   0.133351 0.949971 0.232346 0.134379
H581  H     H_    0.167246 0.952058 0.258094 0.169091
H582  H     H_    0.142127 0.967540 0.198241 0.103402
C550  C     C_3   0.126332 0.909241 0.216078 -0.342549
H583  H     H_    0.118402 0.892067 0.250666 0.258431
H584  H     H_    0.093063 0.906546 0.189663 0.211441
C551  C     C_3   0.174080 0.894519 0.188474 -0.899844
H585  H     H_    0.180447 0.909807 0.151942 0.248797
H586  H     H_    0.168751 0.864545 0.179409 0.277218
H587  H     H_    0.208557 0.897809 0.213159 0.273047
O166  O     O_3   0.959353 0.965454 0.835149 -0.583924
C552  C     C_3   0.925250 0.935729 0.846537 0.115357
H588  H     H_    0.944051 0.918139 0.875912 0.157009
H589  H     H_    0.917467 0.917273 0.812858 0.116695
C553  C     C_3   0.874656 0.950439 0.868869 -0.381751
H590  H     H_    0.882872 0.969152 0.902073 0.227494
H591  H     H_    0.854111 0.966496 0.838999 0.204247
C554  C     C_3   0.839916 0.918715 0.886851 -0.943870
H592  H     H_    0.830933 0.899730 0.854174 0.267055
H593  H     H_    0.803356 0.930228 0.902239 0.269885
H594  H     H_    0.858895 0.902750 0.917843 0.257704
O167  O     O_3   0.961557 0.036583 0.834032 -0.580276
C555  C     C_3   0.914498 0.048034 0.856630 0.159441
H595  H     H_    0.918096 0.045022 0.899012 0.154892
H596  H     H_    0.881336 0.030291 0.844830 0.108832
C556  C     C_3   0.904036 0.088933 0.844533 -0.393796
H597  H     H_    0.936768 0.106279 0.858205 0.227659
H598  H     H_    0.900421 0.092631 0.802276 0.217604
C557  C     C_3   0.854531 0.102242 0.870329 -0.984218
H599  H     H_    0.821064 0.086406 0.855133 0.270095
H600  H     H_    0.848891 0.132202 0.862148 0.266691
H601  H     H_    0.856532 0.098495 0.912695 0.259339
O168  O     O_3   0.093046 0.033710 0.261287 -0.594770
C558  C     C_3   0.122469 0.062664 0.238855 0.113634
H602  H     H_    0.137421 0.080006 0.270788 0.219705
H603  H     H_    0.099391 0.081524 0.214285 0.126260
C559  C     C_3   0.167914 0.046849 0.208231 -0.382589
H604  H     H_    0.190083 0.027658 0.232991 0.226980
H605  H     H_    0.153360 0.031070 0.174383 0.200307
C560  C     C_3   0.203608 0.077669 0.189188 -0.911163
H606  H     H_    0.182122 0.097582 0.164963 0.265414
H607  H     H_    0.235107 0.065370 0.165724 0.253950
H608  H     H_    0.220898 0.092757 0.222282 0.290481

loop_
_geom_bond_atom_site_label_1
_geom_bond_atom_site_label_2
_ccdc_geom_bond_type
C37   C361  A    
C298  H26   S    
C210  C226  A    
C424  H225  S    
C385  C386  S    
O6    Zn26  S    
C381  C382  S    
O14   Zn4   S    
C281  O63   A    
O78   Zn6   S    
C394  H155  S    
C55   O111  S    
O152  C510  S    
C333  O141  S    
C121  H72   S    
C435  C436  S    
C459  H307  S    
O37   Zn29  S    
C488  H408  S    
C38   C368  A    
C446  H276  S    
C170  O82   A    
C505  H446  S    
O7    Zn11  S    
C113  H80   S    
C172  C221  S    
C282  O58   A    
C33   C359  A    
C555  H595  S    
C112  C129  S    
C230  C246  A    
C551  H587  S    
C380  H124  S    
C147  O123  S    
C392  H151  S    
C300  H28   S    
C418  H211  S    
O40   Zn32  S    
O56   Zn32  S    
O7    Zn29  S    
C488  H407  S    
O155  C519  S    
C217  C233  A    
C408  H189  S    
C451  H289  S    
O140  C474  S    
C66   O154  S    
C221  C237  A    
C3    C92   S    
C20   C292  A    
C496  H425  S    
C284  O60   A    
O120  C414  S    
C81   C129  T    
C227  C228  A    
C228  C244  A    
C109  C132  S    
C455  H297  S    
C145  C194  A    
C43   C283  S    
C239  C255  A    
O109  C381  S    
C80   H48   S    
C198  C214  A    
C291  H19   S    
C429  H237  S    
C545  H573  S    
C231  C247  A    
C72   H40   S    
C275  O43   A    
C436  C437  S    
O131  C447  S    
C69   C101  S    
C23   C41   A    
O31   Zn23  S    
C511  H460  S    
C223  C239  A    
O77   Zn5   S    
C465  H353  S    
C333  C349  A    
C52   C100  S    
C49   C97   S    
C195  C196  A    
C196  C212  A    
C434  H248  S    
C498  C499  S    
C317  H91   S    
C77   H45   S    
C145  O121  S    
O70   Zn12  S    
C60   O116  S    
C373  C374  S    
C247  C263  A    
O119  C411  S    
C519  H512  S    
C429  C430  S    
C148  O124  S    
C207  C223  A    
C20   C356  A    
C245  C261  A    
C443  H270  S    
C454  H295  S    
C430  H239  S    
O86   Zn14  S    
C452  H291  S    
O5    Zn15  S    
C199  C215  A    
C114  H63   S    
C171  O35   A    
C158  C190  A    
O144  C486  S    
C163  C214  S    
C194  C210  A    
C303  H31   S    
C517  H506  S    
C146  C178  A    
C257  C258  A    
O136  C462  S    
C475  H377  S    
C32   C368  A    
C74   O162  S    
C2    O10   A    
C16   C87   S    
C233  C234  A    
C107  C118  S    
C308  C324  A    
C4    C91   S    
C66   C67   S    
C124  H69   S    
C346  H474  S    
C420  H216  S    
C544  C545  S    
C8    C95   S    
C375  H111  S    
C20   C44   A    
C99   C126  S    
O36   Zn28  S    
C290  C306  A    
O52   Zn28  S    
O95   Zn23  S    
C410  H193  S    
C460  H309  S    
C448  C449  S    
C343  H471  S    
O137  C465  S    
C59   C107  S    
C170  C223  S    
C476  H379  S    
C423  H224  S    
C69   C72   S    
C39   C363  A    
C224  C240  A    
C70   H38   S    
C481  C482  S    
C371  H101  S    
O134  C456  S    
C288  O70   A    
C164  O76   A    
C417  H210  S    
C319  H89   S    
O55   Zn31  S    
C432  H244  S    
C437  H256  S    
C25   C45   A    
C447  H279  S    
C53   C56   S    
C32   C46   A    
C108  C117  S    
C55   H490  S    
C167  O79   A    
C417  C418  S    
C536  H552  S    
C463  H317  S    
C267  C268  A    
C437  H257  S    
C531  C532  S    
C330  C346  A    
C456  H300  S    
O133  C453  S    
O1    Zn7   S    
O67   Zn13  S    
C206  C222  A    
C539  H559  S    
O59   Zn5   S    
C491  H414  S    
C294  H22   S    
C463  C464  S    
C175  O39   A    
C479  H385  S    
C541  H563  S    
C19   C355  A    
C156  C203  A    
C279  O51   A    
C243  H339  S    
C449  H283  S    
O101  Zn29  S    
C260  H3    S    
C400  H169  S    
O158  C528  S    
C502  C503  S    
C529  H535  S    
C150  C182  A    
O157  C525  S    
C204  C220  A    
C524  H524  S    
C407  H185  S    
O6    Zn32  S    
C384  H133  S    
C54   C55   S    
C281  O57   A    
C53   C101  S    
C419  H213  S    
C376  H114  S    
C80   O168  S    
C60   C108  S    
C9    C82   S    
C398  H166  S    
C516  H505  S    
C76   C108  S    
C540  H560  S    
C256  H352  S    
C33   C353  A    
C394  H156  S    
C7    O95   A    
C68   O156  S    
C340  C356  A    
C159  C191  A    
C56   C104  S    
C117  C120  S    
O128  C438  S    
C72   C104  S    
C58   C59   S    
C205  C206  A    
C316  C332  A    
C12   C83   S    
O146  C492  S    
C163  O27   A    
C2    C89   S    
C62   C63   S    
O7    Zn27  S    
C6    C93   S    
C469  H363  S    
C50   C51   S    
C321  O145  S    
C91   C139  T    
C273  O47   A    
C418  H212  S    
C512  H462  S    
C73   C76   S    
O54   Zn30  S    
C384  C385  S    
C197  C213  A    
C77   C80   S    
C78   H46   S    
C23   C359  A    
C455  H298  S    
C508  H453  S    
C274  O42   A    
C38   C273  S    
O87   Zn15  S    
C451  H288  S    
O32   Zn24  S    
C387  H140  S    
C518  H508  S    
C444  H272  S    
C166  O78   A    
C433  C434  S    
C245  H341  S    
C436  H253  S    
O4    Zn20  S    
C15   O23   A    
C431  H241  S    
C351  C367  A    
C174  C219  S    
C253  H349  S    
C110  C115  S    
O85   Zn13  S    
C522  H518  S    
C307  H85   S    
C440  H262  S    
C98   C143  S    
C267  H12   S    
C235  C251  A    
C183  C184  A    
C451  C452  S    
C553  C554  S    
O97   Zn25  S    
C378  H118  S    
C302  H30   S    
O39   Zn31  S    
O125  C429  S    
C256  C272  A    
C542  H565  S    
C543  H568  S    
C41   C281  S    
C259  H4    S    
C170  O34   A    
C227  C243  A    
C304  C320  A    
C125  H52   S    
C189  H333  S    
C472  H369  S    
C406  H184  S    
C52   O108  S    
C402  H174  S    
C185  H329  S    
C296  C312  A    
C117  H76   S    
C374  H108  S    
C54   H491  S    
O63   Zn1   S    
C262  H5    S    
C324  O148  S    
C175  C218  S    
C211  C227  A    
O89   Zn17  S    
C443  H269  S    
C454  H296  S    
O3    Zn19  S    
C35   C355  A    
C390  C391  S    
C452  H292  S    
C66   H34   S    
C493  C494  S    
C39   C365  A    
C60   H485  S    
C49   H496  S    
O5    Zn31  S    
C64   H481  S    
C58   C106  S    
C279  O53   A    
C195  C211  A    
C475  H376  S    
C52   H493  S    
C74   C106  S    
C3    O11   A    
C62   C110  S    
C406  H183  S    
C78   C110  S    
C165  O77   A    
C555  H596  S    
C271  H16   S    
C420  H217  S    
C128  H49   S    
C414  H202  S    
C342  C358  A    
C314  C330  A    
C263  H8    S    
C457  C458  S    
C14   C85   S    
O8    Zn28  S    
C79   C111  S    
C476  H380  S    
C423  H223  S    
C329  C345  A    
O2    Zn8   S    
C17   C289  A    
C205  C221  A    
O106  C372  S    
C172  O84   A    
C482  H393  S    
C272  H15   S    
C417  H209  S    
O83   Zn11  S    
O122  C420  S    
C437  H255  S    
C257  H2    S    
C422  H220  S    
C339  C355  A    
C264  H7    S    
O1    Zn1   S    
O9    Zn7   S    
C315  H93   S    
C442  H267  S    
C155  O131  S    
O139  C471  S    
C463  H316  S    
C126  H67   S    
C36   C356  A    
O165  C549  S    
C352  C368  A    
O82   Zn10  S    
C305  C321  A    
O2    Zn18  S    
O141  C477  S    
O126  C432  S    
C535  H549  S    
C528  C529  S    
C491  H413  S    
C342  H470  S    
O51   Zn27  S    
C252  H348  S    
C163  O75   A    
C515  H503  S    
C541  H562  S    
C306  H88   S    
C70   O158  S    
C336  C352  A    
C13   O101  A    
C535  C536  S    
C1    O89   A    
C242  C258  A    
C529  H534  S    
C328  C344  A    
C412  H198  S    
C533  H545  S    
C58   O114  S    
O167  C555  S    
C397  C398  S    
C27   C299  A    
C448  H281  S    
C558  H603  S    
C379  C380  S    
C56   H489  S    
C162  O26   A    
C36   C279  S    
C466  H355  S    
C96   C144  T    
C369  H98   S    
C388  H141  S    
C376  C377  S    
C10   O98   A    
C501  H438  S    
O42   Zn18  S    
C540  H561  S    
C79   H47   S    
O72   Zn10  S    
C154  C201  A    
C369  C370  S    
C394  C395  S    
C289  H17   S    
C11   O19   A    
C123  H54   S    
C459  C460  S    
C71   H39   S    
C53   H492  S    
C273  O41   A    
O88   Zn16  S    
C505  C506  S    
C287  O69   A    
C164  O28   A    
C282  O64   A    
C32   C304  A    
C309  H83   S    
C391  H149  S    
C555  C556  S    
C301  C317  A    
C469  H362  S    
C409  H191  S    
C386  H137  S    
C147  C179  A    
C169  O81   A    
C193  C194  A    
C418  C419  S    
C512  H463  S    
O6    Zn10  S    
C34   C360  A    
C391  C392  S    
C244  C260  A    
O16   Zn2   S    
C266  H9    S    
O80   Zn8   S    
O22   Zn12  S    
C327  O151  S    
C277  O55   A    
C431  H243  S    
C431  H242  S    
C387  H139  S    
C546  H575  S    
C284  O62   A    
C107  C134  S    
C444  H273  S    
C416  H206  S    
C258  H1    S    
C169  O33   A    
C226  C242  A    
C348  H476  S    
O151  C507  S    
C249  C265  A    
C173  C220  S    
C318  H92   S    
C152  O128  S    
O75   Zn3   S    
C229  C245  A    
C440  H263  S    
C9    O97   A    
C338  C354  A    
C236  C252  A    
C24   C296  A    
C33   C278  S    
C240  C256  A    
C119  H58   S    
C75   C107  S    
C542  H566  S    
C53   O109  S    
C435  H251  S    
C556  H598  S    
C433  H246  S    
C18   C354  A    
C475  C476  S    
C232  C248  A    
C415  H205  S    
C97   C144  S    
O47   Zn23  S    
C468  H360  S    
C322  C338  A    
C73   C105  S    
C498  H430  S    
C310  C326  A    
C386  H136  S    
C480  H388  S    
C532  H542  S    
C77   C109  S    
C426  H231  S    
C343  C359  A    
C276  O44   A    
C156  O132  S    
C438  H259  S    
C415  C416  S    
C509  H456  S    
O35   Zn27  S    
C454  C455  S    
C341  C357  A    
C28   C48   A    
C379  H121  S    
O5    Zn9   S    
C510  H459  S    
C165  C212  S    
C208  C224  A    
C62   O118  S    
C517  C518  S    
C21   C357  A    
C509  H457  S    
O147  C495  S    
C285  O71   A    
C425  H228  S    
C401  H173  S    
C200  C216  A    
C411  H196  S    
C485  H400  S    
C445  C446  S    
O8    Zn30  S    
C305  H87   S    
C12   O20   A    
C420  C421  S    
C544  H569  S    
C375  C376  S    
C311  C327  A    
C313  H95   S    
C520  H514  S    
O102  Zn30  S    
C1    C90   S    
C241  H337  S    
O74   Zn2   S    
C485  H401  S    
C24   C42   A    
C309  C325  A    
C407  H186  S    
C5    C94   S    
C263  C264  A    
C516  H504  S    
C474  H375  S    
C371  H103  S    
C45   C285  S    
O164  C546  S    
C482  H394  S    
C549  H581  S    
C252  C268  A    
C59   O115  S    
O159  C531  S    
C388  H142  S    
C70   C71   S    
C246  C262  A    
C447  C448  S    
C67   C99   S    
C442  H268  S    
C470  H365  S    
C23   C295  A    
C400  C401  S    
C502  H439  S    
C486  C487  S    
C534  H547  S    
C473  H372  S    
C75   H43   S    
C79   O167  S    
C390  H147  S    
C103  C138  S    
C57   C60   S    
C477  H382  S    
C40   C275  S    
C413  H199  S    
C494  H420  S    
C61   C64   S    
C161  O25   A    
C434  H250  S    
C504  H445  S    
C479  H387  S    
C49   C52   S    
C533  H543  S    
C243  C259  A    
C160  C192  A    
C495  H424  S    
C175  O87   A    
C89   C137  T    
C291  C307  A    
O17   Zn15  S    
C510  H458  S    
C214  C230  A    
O43   Zn19  S    
C93   C141  T    
C153  C202  A    
C412  C413  S    
C318  C334  A    
C157  C206  A    
O1    Zn23  S    
C558  C559  S    
C507  C508  S    
C453  H294  S    
C261  H6    S    
C535  H548  S    
C466  H356  S    
C369  H97   S    
C268  H11   S    
C513  H498  S    
C419  H215  S    
C280  O52   A    
C506  H450  S    
C67   O155  S    
C503  H443  S    
C501  H437  S    
C26   C46   A    
C201  C217  A    
C398  H164  S    
C212  C228  A    
C190  H334  S    
O148  C498  S    
C540  C541  S    
C287  O67   A    
C254  H350  S    
C85   C133  T    
C513  C514  S    
C251  H347  S    
C54   O110  S    
C203  C204  A    
C249  H345  S    
O153  C513  S    
O135  C459  S    
C61   C109  S    
C527  H530  S    
C159  C208  A    
C255  C271  A    
C514  H499  S    
O166  C552  S    
C296  H24   S    
C427  C428  S    
C215  C231  A    
O6    Zn16  S    
C421  H219  S    
C303  C319  A    
C391  H148  S    
C335  O143  S    
O130  C444  S    
C386  H138  S    
C118  C119  S    
C121  C124  S    
C122  H55   S    
C222  C238  A    
C348  C364  A    
C295  C311  A    
C317  C333  A    
C428  H235  S    
C13   C86   S    
C125  C128  S    
C82   C130  T    
C265  C266  A    
C553  H590  S    
C113  C116  S    
C408  C409  S    
C274  O48   A    
C74   C75   S    
C546  C547  S    
O96   Zn24  S    
C444  C445  S    
C538  H556  S    
C78   C79   S    
C446  H277  S    
C404  H178  S    
C17   C353  A    
C254  C270  A    
C494  H421  S    
O48   Zn24  S    
C193  C209  A    
C458  H304  S    
O4    Zn22  S    
C1    O9    A    
C166  O30   A    
C471  H368  S    
C225  C226  A    
C255  H351  S    
C116  H61   S    
C106  C135  S    
O116  C402  S    
C440  H264  S    
C441  H266  S    
C168  O80   A    
C179  H323  S    
C278  O50   A    
C171  C222  S    
C176  O40   A    
C16   O24   A    
C392  H150  S    
C450  H287  S    
C525  C526  S    
C467  H358  S    
C556  C557  S    
C164  C213  S    
C115  H62   S    
C441  C442  S    
C382  H127  S    
C483  H396  S    
C415  H204  S    
C297  C313  A    
C468  H361  S    
O4    Zn4   S    
C523  C524  S    
C461  H312  S    
C480  H389  S    
C532  C533  S    
C426  C427  S    
C7    O15   A    
C438  C439  S    
C328  O152  S    
C231  C232  A    
C509  H455  S    
C237  C238  A    
C443  H271  S    
C461  H313  S    
C22   C294  A    
C39   C276  S    
C379  H120  S    
C27   C363  A    
C234  C250  A    
C125  H68   S    
O5    Zn25  S    
C460  H310  S    
C320  H90   S    
C270  H13   S    
C238  C254  A    
C244  H340  S    
C383  H130  S    
C425  H227  S    
C401  H172  S    
C351  H479  S    
C406  C407  S    
C411  H195  S    
C485  H399  S    
C427  H233  S    
C551  H586  S    
C35   C357  A    
C183  H327  S    
C520  C521  S    
C514  H500  S    
C199  C200  A    
C172  O36   A    
C487  H405  S    
O150  C504  S    
C4    O92   A    
C10   O18   A    
O129  C441  S    
C389  H144  S    
C192  H336  S    
C191  C192  A    
C46   C286  S    
C423  C424  S    
C69   O157  S    
C425  H229  S    
C486  H403  S    
C155  C187  A    
C474  C475  S    
C501  C502  S    
C350  C366  A    
C65   O153  S    
C487  C488  S    
O127  C435  S    
C219  C235  A    
C389  H145  S    
C400  H170  S    
C80   C112  S    
O3    Zn21  S    
C265  H10   S    
C388  C389  S    
C30   C366  A    
C57   H488  S    
C442  C443  S    
O94   Zn22  S    
C470  H366  S    
O124  C426  S    
O8    Zn12  S    
C61   H484  S    
O18   Zn16  S    
C213  C229  A    
C14   O22   A    
C36   C358  A    
C452  H290  S    
C534  C535  S    
C473  H371  S    
C9    O17   A    
C495  H423  S    
O2    Zn24  S    
O24   Zn10  S    
C477  H381  S    
C491  H415  S    
O12   Zn6   S    
C31   C303  A    
C57   O113  S    
C337  C353  A    
C300  C316  A    
C541  C542  S    
C3    O91   A    
C395  H158  S    
C63   C111  S    
O1    Zn17  S    
C64   C112  S    
C558  H602  S    
C399  H168  S    
O105  C369  S    
C413  H200  S    
C162  O74   A    
C529  C530  S    
C24   C360  A    
C473  H373  S    
C370  H99   S    
C280  O54   A    
C506  H448  S    
C477  C478  S    
C462  H315  S    
C490  H411  S    
C18   C290  A    
C30   C48   A    
C424  H226  S    
C385  H135  S    
C466  C467  S    
C146  O122  S    
C261  C262  A    
C403  H177  S    
C513  H497  S    
C376  H113  S    
O27   Zn19  S    
C312  C328  A    
C314  H96   S    
C458  H305  S    
C105  C120  S    
C478  H383  S    
C150  C197  A    
C548  H579  S    
C453  C454  S    
C97   C128  S    
C527  H529  S    
C86   C134  T    
C508  H454  S    
O93   Zn21  S    
C101  C124  S    
C329  O137  S    
C347  C363  A    
C21   C293  A    
C421  H218  S    
O71   Zn9   S    
O81   Zn9   S    
C434  H249  S    
C77   O165  S    
C526  H527  S    
C84   C132  T    
C469  C470  S    
O23   Zn9   S    
C496  H426  S    
C148  C195  A    
C533  H544  S    
C484  H397  S    
C428  H236  S    
C165  O29   A    
C147  C196  A    
C283  O61   A    
C402  H175  S    
C191  H335  S    
C123  H70   S    
C325  O149  S    
C4    O12   A    
C341  H469  S    
C277  O49   A    
C27   C47   A    
O104  Zn32  S    
C6    O94   A    
C115  H78   S    
O49   Zn25  S    
C151  C200  A    
C387  C388  S    
C161  O73   A    
C538  C539  S    
C151  C183  A    
C404  H179  S    
C494  H422  S    
C66   C98   S    
O20   Zn14  S    
O65   Zn15  S    
C278  O56   A    
O57   Zn7   S    
C413  H201  S    
C503  H441  S    
C173  O85   A    
C197  C198  A    
O61   Zn3   S    
C290  H18   S    
C441  H265  S    
C25   C297  A    
C242  H338  S    
O10   Zn8   S    
C372  H104  S    
C315  C331  A    
C57   C105  S    
C542  H564  S    
C543  C544  S    
C450  C451  S    
C467  H357  S    
C298  C314  A    
C373  H107  S    
C233  C249  A    
C464  H318  S    
C149  O125  S    
C382  H128  S    
C557  H600  S    
C237  C253  A    
C483  H395  S    
C468  C469  S    
C100  C141  S    
C67   H35   S    
C73   O161  S    
C461  H311  S    
C225  C241  A    
C44   C284  S    
C480  C481  S    
C104  C137  S    
C548  H578  S    
C72   O160  S    
C445  H274  S    
C127  H66   S    
C160  O136  S    
O44   Zn20  S    
O107  C375  S    
C557  H601  S    
C235  C236  A    
C334  O142  S    
C350  H478  S    
C435  H252  S    
C293  C309  A    
C119  H74   S    
C332  O140  S    
C338  H466  S    
C269  C270  A    
C209  C225  A    
C118  H59   S    
C28   C364  A    
C344  C360  A    
C19   C43   A    
C460  C461  S    
C5    O93   A    
C311  H81   S    
C383  H129  S    
C250  C266  A    
C557  H599  S    
C73   H41   S    
C390  H146  S    
C401  H171  S    
C324  C340  A    
C519  C520  S    
C166  C211  S    
C416  H208  S    
C549  C550  S    
C347  H475  S    
C525  H526  S    
C530  H537  S    
C345  H473  S    
C34   C354  A    
C29   C365  A    
C161  C216  S    
C481  H391  S    
C120  H57   S    
C487  H404  S    
C92   C140  T    
C389  H143  S    
C516  C517  S    
C13   O21   A    
O4    Zn6   S    
C393  H154  S    
O73   Zn1   S    
O132  C450  S    
O8    Zn14  S    
C187  C188  A    
C48   C288  S    
C497  H429  S    
O15   Zn1   S    
C552  H588  S    
C153  O129  S    
O118  C408  S    
C246  H342  S    
C531  H540  S    
C396  H160  S    
C377  H116  S    
C393  C394  S    
C179  C180  A    
O162  C540  S    
C539  H558  S    
C550  H583  S    
C500  H434  S    
O149  C501  S    
C201  C202  A    
C331  O139  S    
C426  H230  S    
O98   Zn26  S    
C295  H23   S    
C560  H606  S    
C409  H190  S    
C174  O38   A    
C26   C298  A    
O3    Zn5   S    
C59   H486  S    
C248  H344  S    
C395  H157  S    
O33   Zn25  S    
C121  H56   S    
C471  H367  S    
C528  H533  S    
C21   C43   A    
O123  C423  S    
C399  H167  S    
C484  H398  S    
C70   C102  S    
C76   O164  S    
C292  C308  A    
C331  C347  A    
C370  H100  S    
C492  H416  S    
C112  C113  S    
C42   C282  S    
C186  H330  S    
C462  C463  S    
C490  H412  S    
C51   C99   S    
C22   C44   A    
C37   C367  A    
C100  C125  S    
C424  C425  S    
C385  H134  S    
C218  C234  A    
C506  H449  S    
C403  H176  S    
C104  C121  S    
O46   Zn22  S    
C537  H554  S    
C512  H464  S    
C439  H261  S    
C446  H278  S    
C26   C362  A    
C458  H306  S    
C307  C323  A    
C405  H182  S    
C478  H384  S    
C105  C136  S    
C269  H14   S    
C507  H451  S    
C78   O166  S    
C548  H580  S    
C326  O150  S    
C537  C538  S    
C152  C184  A    
C259  C260  A    
C177  H321  S    
C551  H585  S    
C439  C440  S    
C380  H122  S    
C408  H188  S    
C514  C515  S    
C427  H232  S    
C286  O66   A    
C220  C236  A    
C403  C404  S    
C8    O96   A    
C526  H528  S    
C50   O106  S    
C409  C410  S    
O38   Zn30  S    
C65   C97   S    
C160  C207  A    
C547  H577  S    
C153  C185  A    
C216  C232  A    
O92   Zn20  S    
C496  C497  S    
C157  C189  A    
C518  H509  S    
C402  C403  S    
C433  H247  S    
C145  C177  A    
C122  C123  S    
C349  C365  A    
C414  H203  S    
C126  C127  S    
O11   Zn5   S    
C546  H574  S    
C114  C115  S    
C319  C335  A    
C404  H180  S    
C95   C143  T    
C522  H519  S    
C122  H71   S    
C275  O45   A    
C499  H433  S    
C378  H119  S    
C289  C305  A    
C271  C272  A    
O41   Zn17  S    
C492  H417  S    
C114  H79   S    
C30   C302  A    
C410  H192  S    
O45   Zn21  S    
C472  H370  S    
C489  H410  S    
C455  H299  S    
C69   H37   S    
C372  H105  S    
C301  H29   S    
C374  H109  S    
C445  H275  S    
C373  H106  S    
C323  O147  S    
C464  H319  S    
C382  C383  S    
C6    O14   A    
C489  C490  S    
C247  H343  S    
O156  C522  S    
C124  H53   S    
C178  H322  S    
C188  H332  S    
C31   C367  A    
C523  H520  S    
C181  C182  A    
C285  O65   A    
C493  H419  S    
C116  H77   S    
C83   C131  T    
C229  C230  A    
C111  C130  S    
C65   C68   S    
C63   O119  S    
C110  C131  S    
C202  C218  A    
C98   C127  S    
C176  C217  S    
C176  O88   A    
C293  H21   S    
C102  C123  S    
C251  C267  A    
C416  H207  S    
C154  O130  S    
C8    O16   A    
C51   O107  S    
C180  H324  S    
C525  H525  S    
C168  C209  S    
C63   H482  S    
C49   O105  S    
O110  C384  S    
C430  C431  S    
O28   Zn20  S    
C322  O146  S    
C11   C84   S    
C411  C412  S    
C40   C364  A    
C457  H303  S    
C108  C133  S    
C545  H572  S    
C308  H86   S    
C530  H538  S    
C523  H521  S    
C102  C139  S    
C312  H82   S    
C520  H513  S    
C481  H390  S    
O111  C387  S    
C316  H94   S    
C521  H516  S    
C150  O126  S    
C407  H187  S    
C248  C264  A    
C554  H593  S    
C422  H221  S    
C393  H153  S    
C474  H374  S    
C167  O31   A    
C173  O37   A    
C29   C47   A    
C536  H550  S    
C159  O135  S    
C430  H240  S    
C313  C329  A    
C531  H539  S    
C304  H32   S    
O161  C537  S    
C396  H161  S    
C377  H115  S    
C321  C337  A    
C507  H452  S    
C539  H557  S    
C432  H245  S    
C482  H392  S    
C456  H301  S    
O121  C417  S    
C158  O134  S    
C432  C433  S    
C515  H502  S    
C495  C496  S    
C503  H442  S    
C90   C138  T    
C560  H607  S    
C50   C98   S    
C35   C280  S    
C94   C142  T    
C340  H468  S    
C253  C269  A    
C486  H402  S    
O168  C558  S    
C381  H126  S    
C344  H472  S    
C75   O163  S    
O114  C396  S    
C456  C457  S    
C377  H117  S    
C397  H163  S    
C337  H465  S    
C68   C100  S    
O117  C405  S    
C37   C274  S    
C462  H314  S    
O99   Zn27  S    
C530  H536  S    
C524  H522  S    
C484  C485  S    
C25   C361  A    
C543  H567  S    
C306  C322  A    
C15   O103  A    
C332  C348  A    
C502  H440  S    
O113  C393  S    
C370  C371  S    
C559  H605  S    
C326  C342  A    
O34   Zn26  S    
C490  C491  S    
C71   C103  S    
O160  C534  S    
O50   Zn26  S    
C22   C358  A    
C412  H197  S    
C559  C560  S    
C459  H308  S    
C537  H553  S    
O91   Zn19  S    
C439  H260  S    
C276  O46   A    
C505  H447  S    
C286  O72   A    
C405  H181  S    
C478  C479  S    
C61   O117  S    
C148  C180  A    
O145  C489  S    
C50   H495  S    
C453  H293  S    
C51   H494  S    
O26   Zn18  S    
C28   C300  A    
C527  H531  S    
C15   C88   S    
C380  H123  S    
C38   C362  A    
C106  C119  S    
O7    Zn13  S    
C239  C240  A    
C421  C422  S    
O13   Zn3   S    
C384  H132  S    
C488  H406  S    
C526  C527  S    
C7    C96   S    
C310  H84   S    
C547  H576  S    
C392  H152  S    
C169  C224  S    
C65   H33   S    
C553  H591  S    
C549  H582  S    
C283  O59   A    
C518  H510  S    
C109  C116  S    
O142  C480  S    
O163  C543  S    
C12   O100  A    
C149  C198  A    
C414  C415  S    
O115  C399  S    
C19   C291  A    
C149  C181  A    
C117  H60   S    
C64   O120  S    
C156  C188  A    
C522  C523  S    
C429  H238  S    
C5    O13   A    
C207  C208  A    
C88   C136  T    
C547  C548  S    
C436  H254  S    
C499  H432  S    
C378  C379  S    
C449  H285  S    
O3    Zn3   S    
C471  C472  S    
C152  C199  A    
C532  H541  S    
C492  C493  S    
C511  H461  S    
O64   Zn2   S    
C87   C135  T    
C465  H354  S    
C472  C473  S    
C489  H409  S    
C146  C193  A    
O90   Zn18  S    
C498  H431  S    
C302  C318  A    
C372  C373  S    
C113  H64   S    
C374  H110  S    
C511  C512  S    
O60   Zn6   S    
C450  H286  S    
C352  H480  S    
C467  H359  S    
O53   Zn29  S    
O154  C516  S    
O19   Zn13  S    
C465  C466  S    
C464  H320  S    
C174  O86   A    
O25   Zn17  S    
C54   C102  S    
C483  C484  S    
C167  C210  S    
C499  C500  S    
O100  Zn28  S    
O29   Zn21  S    
C504  H444  S    
C10   C81   S    
C68   H36   S    
C493  H418  S    
C18   C42   A    
C346  C362  A    
C556  H597  S    
O76   Zn4   S    
C47   C287  S    
C397  H162  S    
C185  C186  A    
C538  H555  S    
C334  C350  A    
C517  H507  S    
C111  C114  S    
C497  H428  S    
C189  C190  A    
C552  H589  S    
C554  H592  S    
C177  C178  A    
C31   C45   A    
C345  C361  A    
O103  Zn31  S    
O69   Zn11  S    
C40   C366  A    
C103  C122  S    
C438  H258  S    
C250  H346  S    
C323  C339  A    
C544  H570  S    
C99   C142  S    
C383  H131  S    
O79   Zn7   S    
O21   Zn11  S    
C375  H112  S    
C241  C257  A    
C457  H302  S    
C127  H50   S    
C58   H487  S    
C292  H20   S    
C545  H571  S    
C448  H282  S    
C126  H51   S    
C55   C103  S    
C62   H483  S    
C154  C186  A    
C476  H378  S    
C187  H331  S    
O2    Zn2   S    
C371  H102  S    
C330  O138  S    
C118  H75   S    
C521  H515  S    
C71   O159  S    
C410  H194  S    
C297  H25   S    
C428  H234  S    
C299  C315  A    
C157  O133  S    
C554  H594  S    
C422  H222  S    
C320  C336  A    
O138  C468  S    
C101  C140  S    
C447  H280  S    
C162  C215  S    
C158  C205  A    
C171  O83   A    
C288  O68   A    
C29   C301  A    
C536  H551  S    
C497  H427  S    
C552  C553  S    
C128  H65   S    
C182  H326  S    
C405  C406  S    
C550  H584  S    
C396  C397  S    
C335  C351  A    
C14   O102  A    
C349  H477  S    
C294  C310  A    
C470  H364  S    
C550  C551  S    
C120  H73   S    
C521  H517  S    
C339  H467  S    
C528  H532  S    
C2    O90   A    
C500  H436  S    
C299  H27   S    
C16   O104  A    
C327  C343  A    
C515  H501  S    
C508  C509  S    
C479  H386  S    
O112  C390  S    
C500  H435  S    
C155  C204  A    
C168  O32   A    
C325  C341  A    
C74   H42   S    
C560  H608  S    
C336  O144  S    
C449  H284  S    
O68   Zn14  S    
C34   C277  S    
C534  H546  S    
C184  H328  S    
C381  H125  S    
C395  H159  S    
C203  C219  A    
C519  H511  S    
C11   O99   A    
O108  C378  S    
C510  C511  S    
O84   Zn12  S    
O66   Zn16  S    
C399  C400  S    
O58   Zn8   S    
C524  H523  S    
C17   C41   A    
O62   Zn4   S    
C181  H325  S    
C419  H214  S    
C559  H604  S    
C56   O112  S    
O143  C483  S    
O30   Zn22  S    
C504  C505  S    
C76   H44   S    
C151  O127  S    
C398  H165  S    
