data_mof_unit_3518.cif
_audit_creation_date              2012-12-11T15:08:59-0500
_audit_creation_method            fapswitch 2.2
_symmetry_space_group_name_H-M    P1
_symmetry_Int_Tables_number       1
_space_group_crystal_system       monoclinic
_cell_length_a                    19.605788
_cell_length_b                    11.36797
_cell_length_c                    18.726146
_cell_angle_alpha                 90.0
_cell_angle_beta                  90.42383
_cell_angle_gamma                 90.0
_cell_volume                      4173.53196355

loop_
_atom_site_label
_atom_site_type_symbol
_atom_type_description
_atom_site_fract_x
_atom_site_fract_y
_atom_site_fract_z
_atom_type_partial_charge
C1    C     C_R   0.272998 0.042311 0.854086 0.508772
C2    C     C_3   0.692074 0.518139 0.956956 -0.190294
C3    C     C_R   0.226326 0.542789 0.354298 0.527742
C4    C     C_R   0.468668 0.822732 0.645582 0.554378
C5    C     C_R   0.531332 0.822732 0.354418 0.554378
C6    C     C_R   0.968668 0.322732 0.645582 0.554378
C7    C     C_R   0.031332 0.322732 0.354418 0.554378
C8    C     C_R   0.260459 0.639360 0.644084 0.534768
C9    C     C_R   0.739541 0.639360 0.355916 0.534768
C10   C     C_R   0.760459 0.139360 0.644084 0.534768
C11   C     C_R   0.239541 0.139360 0.355916 0.534768
C12   C     C_3   0.472866 0.919672 0.030200 -0.164717
C13   C     C_3   0.807926 0.018139 0.043044 -0.190294
C14   C     C_3   0.527134 0.919672 0.969800 -0.164717
C15   C     C_3   0.972866 0.419672 0.030200 -0.164717
C16   C     C_3   0.027134 0.419672 0.969800 -0.164717
C17   C     C_3   0.432408 0.820861 0.990811 -0.107686
C18   C     C_3   0.567591 0.820861 0.009189 -0.107686
C19   C     C_3   0.932408 0.320861 0.990811 -0.107686
C20   C     C_3   0.067591 0.320861 0.009189 -0.107686
C21   C     C_3   0.486255 0.823837 0.931237 0.028608
C22   C     C_3   0.513745 0.823837 0.068763 0.028608
C23   C     C_3   0.986255 0.323837 0.931237 0.028608
C24   C     C_3   0.192074 0.018139 0.956956 -0.190294
C25   C     C_3   0.013745 0.323837 0.068763 0.028608
C26   C     C_3   0.327968 0.750198 0.158387 0.016711
C27   C     C_3   0.275611 0.817823 0.203266 -0.297171
C28   C     C_3   0.301881 0.834322 0.279118 -0.469255
C29   C     C_3   0.672032 0.750198 0.841613 0.016712
C30   C     C_3   0.724389 0.817823 0.796734 -0.297171
C31   C     C_3   0.698119 0.834322 0.720882 -0.469256
C32   C     C_3   0.827968 0.250198 0.158387 0.016711
C33   C     C_3   0.775611 0.317823 0.203266 -0.297171
C34   C     C_3   0.801881 0.334322 0.279118 -0.469255
C35   C     C_3   0.319696 0.547886 0.963701 -0.214209
C36   C     C_3   0.172032 0.250198 0.841613 0.016711
C37   C     C_3   0.224389 0.317823 0.796734 -0.297171
C38   C     C_3   0.198119 0.334322 0.720882 -0.469256
C39   C     C_3   0.477893 0.509576 0.415103 0.001534
C40   C     C_3   0.452348 0.462043 0.343350 -0.244935
C41   C     C_3   0.466288 0.330419 0.336371 -0.471749
C42   C     C_3   0.522108 0.509576 0.584897 0.001534
C43   C     C_3   0.547651 0.462044 0.656650 -0.244934
C44   C     C_3   0.533713 0.330419 0.663629 -0.471748
C45   C     C_3   0.977893 0.009577 0.415103 0.001533
C46   C     C_3   0.680303 0.547886 0.036299 -0.214209
C47   C     C_3   0.952348 0.962044 0.343350 -0.244935
C48   C     C_3   0.966287 0.830419 0.336370 -0.471749
C49   C     C_3   0.022107 0.009576 0.584897 0.001534
C50   C     C_3   0.047651 0.962043 0.656650 -0.244934
C51   C     C_3   0.033713 0.830419 0.663629 -0.471748
C52   C     C_3   0.819697 0.047886 0.963701 -0.214209
C53   C     C_3   0.180303 0.047886 0.036299 -0.214210
C54   C     C_3   0.179133 0.536905 0.026629 -0.253634
C55   C     C_3   0.820867 0.536905 0.973371 -0.253634
C56   C     C_3   0.679133 0.036905 0.026629 -0.253634
C57   C     C_R   0.727001 0.042311 0.145914 0.508772
C58   C     C_3   0.320866 0.036905 0.973371 -0.253634
C59   C     C_3   0.251123 0.709882 0.060322 0.141592
C60   C     C_3   0.748877 0.709882 0.939678 0.141592
C61   C     C_3   0.751123 0.209882 0.060322 0.141592
C62   C     C_3   0.248877 0.209882 0.939678 0.141592
C63   C     C_3   0.242431 0.576812 0.071459 0.060895
C64   C     C_3   0.757569 0.576812 0.928541 0.060895
C65   C     C_3   0.742431 0.076812 0.071459 0.060895
C66   C     C_3   0.257569 0.076812 0.928541 0.060895
C67   C     C_3   0.256623 0.613927 0.933607 0.013435
C68   C     C_R   0.772999 0.542311 0.854086 0.508772
C69   C     C_3   0.743377 0.613927 0.066392 0.013435
C70   C     C_3   0.756623 0.113927 0.933607 0.013435
C71   C     C_3   0.243377 0.113927 0.066392 0.013434
C72   C     C_3   0.193958 0.536844 0.946355 -0.287679
C73   C     C_3   0.806042 0.536844 0.053644 -0.287679
C74   C     C_3   0.693958 0.036844 0.946355 -0.287679
C75   C     C_3   0.306042 0.036844 0.053644 -0.287679
C76   C     C_3   0.244705 0.728473 0.977982 -0.159902
C77   C     C_3   0.755295 0.728473 0.022018 -0.159902
C78   C     C_3   0.744705 0.228473 0.977982 -0.159902
C79   C     C_R   0.227001 0.542311 0.145914 0.508772
C80   C     C_3   0.255295 0.228473 0.022018 -0.159902
C81   C     C_3   0.508099 0.697898 0.460560 0.180749
C82   C     C_3   0.491901 0.697898 0.539440 0.180749
C83   C     C_3   0.008098 0.197898 0.460560 0.180749
C84   C     C_3   0.991901 0.197898 0.539440 0.180750
C85   C     C_R   0.466832 0.820400 0.855702 0.540339
C86   C     C_R   0.533168 0.820400 0.144298 0.540339
C87   C     C_R   0.966832 0.320400 0.855702 0.540339
C88   C     C_R   0.033168 0.320400 0.144298 0.540339
C89   C     C_3   0.563760 0.901683 0.473755 -0.279600
C90   C     C_3   0.525218 0.728394 0.970119 0.252471
C91   C     C_3   0.436240 0.901683 0.526245 -0.279600
C92   C     C_3   0.063760 0.401683 0.473755 -0.279600
C93   C     C_3   0.936240 0.401683 0.526245 -0.279600
C94   C     C_3   0.440827 0.881679 0.444627 -0.276966
C95   C     C_3   0.559172 0.881679 0.555373 -0.276966
C96   C     C_3   0.940828 0.381679 0.444627 -0.276966
C97   C     C_3   0.059172 0.381679 0.555373 -0.276965
C98   C     C_3   0.510578 0.826316 0.430914 0.053423
C99   C     C_3   0.489422 0.826316 0.569086 0.053424
C100  C     C_3   0.010578 0.326316 0.430914 0.053424
C101  C     C_3   0.474782 0.728394 0.029881 0.252471
C102  C     C_3   0.989422 0.326316 0.569086 0.053423
C103  C     C_3   0.177218 0.643318 0.459740 -0.224578
C104  C     C_3   0.822782 0.643318 0.540260 -0.224578
C105  C     C_3   0.677218 0.143318 0.459740 -0.224578
C106  C     C_3   0.322781 0.143318 0.540260 -0.224578
C107  C     C_3   0.183248 0.658752 0.539006 -0.226769
C108  C     C_3   0.816752 0.658752 0.460994 -0.226770
C109  C     C_3   0.683248 0.158752 0.539006 -0.226770
C110  C     C_3   0.316752 0.158752 0.460994 -0.226770
C111  C     C_3   0.250917 0.454896 0.472730 -0.212493
C112  C     C_3   0.025218 0.228394 0.970119 0.252471
C113  C     C_3   0.749083 0.454896 0.527270 -0.212493
C114  C     C_3   0.750917 0.954896 0.472730 -0.212493
C115  C     C_3   0.249083 0.954896 0.527270 -0.212492
C116  C     C_3   0.300200 0.649424 0.443688 -0.268438
C117  C     C_3   0.699800 0.649424 0.556312 -0.268438
C118  C     C_3   0.800200 0.149424 0.443688 -0.268438
C119  C     C_3   0.199800 0.149424 0.556312 -0.268438
C120  C     C_3   0.238422 0.571872 0.430349 0.057600
C121  C     C_3   0.761578 0.571872 0.569651 0.057600
C122  C     C_3   0.738422 0.071872 0.430349 0.057600
C123  C     C_3   0.974781 0.228394 0.029881 0.252471
C124  C     C_3   0.261578 0.071872 0.569651 0.057600
C125  C     C_3   0.250945 0.604679 0.568085 0.065558
C126  C     C_3   0.749055 0.604679 0.431915 0.065558
C127  C     C_3   0.750945 0.104679 0.568085 0.065558
C128  C     C_3   0.249055 0.104679 0.431915 0.065558
C129  C     C_3   0.245472 0.472415 0.554373 -0.270129
C130  C     C_3   0.754528 0.472415 0.445627 -0.270129
C131  C     C_3   0.745472 0.972415 0.554373 -0.270129
C132  C     C_3   0.254528 0.972415 0.445627 -0.270129
C133  C     C_R   0.263360 0.645846 0.856177 0.526570
C134  C     C_3   0.307926 0.518139 0.043044 -0.190294
C135  C     C_R   0.736640 0.645846 0.143823 0.526570
C136  C     C_R   0.763360 0.145846 0.856177 0.526570
C137  C     C_R   0.236640 0.145846 0.143823 0.526570
C138  C     C_3   0.314018 0.647215 0.524819 -0.203903
C139  C     C_3   0.685982 0.647215 0.475181 -0.203903
C140  C     C_3   0.814018 0.147215 0.524819 -0.203903
C141  C     C_3   0.185982 0.147214 0.475181 -0.203903
C142  C     C_R   0.273674 0.042789 0.645702 0.527742
C143  C     C_R   0.726326 0.042789 0.354298 0.527742
C144  C     C_R   0.773674 0.542789 0.645702 0.527742
Cr1   Cr    Cr6+3 0.229620 0.836040 0.749110 0.974186
Cr2   Cr    Cr6+3 0.613980 0.676590 0.250790 0.985590
Cr3   Cr    Cr6+3 0.886020 0.176590 0.749210 0.985590
Cr4   Cr    Cr6+3 0.113980 0.176590 0.250790 0.985590
Cr5   Cr    Cr6+3 0.770380 0.836040 0.250890 0.974186
Cr6   Cr    Cr6+3 0.729620 0.336040 0.749110 0.974186
Cr7   Cr    Cr6+3 0.270380 0.336040 0.250890 0.974186
Cr8   Cr    Cr6+3 0.387630 0.990680 0.750730 0.983140
Cr9   Cr    Cr6+3 0.612370 0.990680 0.249270 0.983140
Cr10  Cr    Cr6+3 0.887630 0.490680 0.750730 0.983140
Cr11  Cr    Cr6+3 0.112370 0.490680 0.249270 0.983140
Cr12  Cr    Cr6+3 0.386020 0.676590 0.749210 0.985590
H1    H     H_    0.380201 0.795955 0.980108 0.149285
H2    H     H_    0.723555 0.799918 0.041520 0.113613
H3    H     H_    0.194314 0.925168 0.949557 0.098878
H4    H     H_    0.351241 0.541955 0.076968 0.223925
H5    H     H_    0.648759 0.541955 0.923032 0.223925
H6    H     H_    0.851241 0.041955 0.076968 0.223925
H7    H     H_    0.148759 0.041955 0.923032 0.223925
H8    H     H_    0.366170 0.602047 0.957849 0.179250
H9    H     H_    0.633830 0.602047 0.042151 0.179250
H10   H     H_    0.866170 0.102047 0.957849 0.179250
H11   H     H_    0.133830 0.102047 0.042151 0.179250
H12   H     H_    0.328416 0.465383 0.933185 0.097910
H13   H     H_    0.776445 0.299918 0.958480 0.113613
H14   H     H_    0.671583 0.465382 0.066815 0.097910
H15   H     H_    0.828416 0.965383 0.933185 0.097910
H16   H     H_    0.171584 0.965383 0.066815 0.097910
H17   H     H_    0.662911 0.951943 0.045380 0.126586
H18   H     H_    0.337089 0.951943 0.954619 0.126587
H19   H     H_    0.162911 0.451943 0.045380 0.126586
H20   H     H_    0.837089 0.451943 0.954619 0.126587
H21   H     H_    0.704653 0.947502 0.929124 0.188889
H22   H     H_    0.295347 0.947502 0.070876 0.188889
H23   H     H_    0.204653 0.447502 0.929124 0.188889
H24   H     H_    0.223555 0.299918 0.041520 0.113613
H25   H     H_    0.795347 0.447502 0.070876 0.188889
H26   H     H_    0.378416 0.792661 0.166880 0.181872
H27   H     H_    0.334625 0.659304 0.178468 0.156116
H28   H     H_    0.264974 0.905581 0.180375 0.162683
H29   H     H_    0.226950 0.768615 0.205949 0.175686
H30   H     H_    0.317504 0.748424 0.302103 0.148095
H31   H     H_    0.260326 0.871895 0.311460 0.146385
H32   H     H_    0.346079 0.895492 0.280152 0.152400
H33   H     H_    0.621584 0.792661 0.833120 0.181872
H34   H     H_    0.665375 0.659304 0.821532 0.156115
H35   H     H_    0.190652 0.752369 0.967854 0.089413
H36   H     H_    0.735026 0.905581 0.819625 0.162683
H37   H     H_    0.773050 0.768614 0.794051 0.175686
H38   H     H_    0.682496 0.748424 0.697897 0.148095
H39   H     H_    0.739673 0.871894 0.688540 0.146385
H40   H     H_    0.653922 0.895492 0.719848 0.152400
H41   H     H_    0.878416 0.292661 0.166880 0.181872
H42   H     H_    0.834625 0.159304 0.178468 0.156116
H43   H     H_    0.764974 0.405581 0.180375 0.162683
H44   H     H_    0.726950 0.268615 0.205949 0.175686
H45   H     H_    0.817504 0.248424 0.302103 0.148095
H46   H     H_    0.809348 0.752369 0.032146 0.089413
H47   H     H_    0.760326 0.371894 0.311460 0.146385
H48   H     H_    0.846078 0.395492 0.280152 0.152401
H49   H     H_    0.121584 0.292661 0.833120 0.181872
H50   H     H_    0.165375 0.159304 0.821532 0.156116
H51   H     H_    0.235025 0.405581 0.819625 0.162683
H52   H     H_    0.273050 0.268615 0.794051 0.175686
H53   H     H_    0.182496 0.248424 0.697897 0.148095
H54   H     H_    0.239673 0.371895 0.688540 0.146385
H55   H     H_    0.153921 0.395492 0.719848 0.152400
H56   H     H_    0.452250 0.459754 0.458212 0.106817
H57   H     H_    0.690652 0.252369 0.967854 0.089413
H58   H     H_    0.533834 0.493106 0.417814 0.117572
H59   H     H_    0.396697 0.477258 0.338056 0.178313
H60   H     H_    0.478183 0.509322 0.299208 0.186665
H61   H     H_    0.521985 0.312870 0.339396 0.136791
H62   H     H_    0.446622 0.298462 0.284101 0.153599
H63   H     H_    0.440248 0.281224 0.379557 0.139462
H64   H     H_    0.547751 0.459754 0.541788 0.106817
H65   H     H_    0.466167 0.493105 0.582185 0.117571
H66   H     H_    0.603303 0.477260 0.661945 0.178313
H67   H     H_    0.521816 0.509321 0.700791 0.186665
H68   H     H_    0.309348 0.252369 0.032146 0.089413
H69   H     H_    0.478016 0.312868 0.660602 0.136790
H70   H     H_    0.553378 0.298463 0.715899 0.153599
H71   H     H_    0.559755 0.281225 0.620444 0.139463
H72   H     H_    0.952250 0.959754 0.458212 0.106817
H73   H     H_    0.033834 0.993106 0.417814 0.117572
H74   H     H_    0.896696 0.977259 0.338056 0.178313
H75   H     H_    0.978183 0.009322 0.299208 0.186665
H76   H     H_    0.021985 0.812870 0.339396 0.136791
H77   H     H_    0.946622 0.798463 0.284101 0.153599
H78   H     H_    0.940247 0.781225 0.379556 0.139463
H79   H     H_    0.635107 0.096569 0.036588 0.132188
H80   H     H_    0.047750 0.959754 0.541788 0.106817
H81   H     H_    0.966166 0.993105 0.582185 0.117572
H82   H     H_    0.103303 0.977259 0.661944 0.178313
H83   H     H_    0.021817 0.009321 0.700791 0.186665
H84   H     H_    0.978015 0.812869 0.660603 0.136791
H85   H     H_    0.053378 0.798462 0.715899 0.153599
H86   H     H_    0.059753 0.781224 0.620443 0.139463
H87   H     H_    0.506525 0.576029 0.930086 0.332565
H88   H     H_    0.493475 0.576029 0.069914 0.332565
H89   H     H_    0.006525 0.076029 0.930086 0.332565
H90   H     H_    0.364893 0.096569 0.963412 0.132188
H91   H     H_    0.993475 0.076029 0.069914 0.332565
H92   H     H_    0.135107 0.596569 0.036588 0.132188
H93   H     H_    0.619799 0.795955 0.019892 0.149285
H94   H     H_    0.864893 0.596569 0.963412 0.132188
H95   H     H_    0.149127 0.569747 0.915818 0.132851
H96   H     H_    0.850873 0.569747 0.084182 0.132851
H97   H     H_    0.649127 0.069747 0.915818 0.132851
H98   H     H_    0.350873 0.069747 0.084182 0.132851
H99   H     H_    0.558804 0.664284 0.453997 0.137661
H100  H     H_    0.441196 0.664284 0.546003 0.137661
H101  H     H_    0.058804 0.164284 0.453997 0.137662
H102  H     H_    0.941196 0.164284 0.546003 0.137662
H103  H     H_    0.615273 0.891881 0.453936 0.114712
H104  H     H_    0.880201 0.295955 0.980108 0.149285
H105  H     H_    0.384727 0.891881 0.546064 0.114712
H106  H     H_    0.115273 0.391881 0.453936 0.114712
H107  H     H_    0.884727 0.391881 0.546064 0.114712
H108  H     H_    0.600551 0.823260 0.574380 0.154787
H109  H     H_    0.399449 0.823260 0.425620 0.154787
H110  H     H_    0.100551 0.323260 0.574380 0.154787
H111  H     H_    0.899449 0.323260 0.425620 0.154787
H112  H     H_    0.453549 0.999832 0.056597 0.119058
H113  H     H_    0.546450 0.999832 0.943403 0.119058
H114  H     H_    0.953550 0.499832 0.056597 0.119058
H115  H     H_    0.119799 0.295955 0.019892 0.149285
H116  H     H_    0.046450 0.499832 0.943403 0.119058
H117  H     H_    0.435991 0.966438 0.415546 0.106503
H118  H     H_    0.564009 0.966438 0.584454 0.106503
H119  H     H_    0.935991 0.466438 0.415546 0.106503
H120  H     H_    0.064009 0.466438 0.584454 0.106503
H121  H     H_    0.450823 0.994185 0.535850 0.130715
H122  H     H_    0.549177 0.994185 0.464150 0.130715
H123  H     H_    0.950823 0.494185 0.535850 0.130715
H124  H     H_    0.049177 0.494185 0.464150 0.130715
H125  H     H_    0.128398 0.603052 0.447028 0.136378
H126  H     H_    0.209246 0.760208 0.085881 0.100111
H127  H     H_    0.871601 0.603053 0.552971 0.136378
H128  H     H_    0.628399 0.103053 0.447028 0.136378
H129  H     H_    0.371602 0.103053 0.552971 0.136378
H130  H     H_    0.174491 0.731142 0.433600 0.111048
H131  H     H_    0.825509 0.731142 0.566400 0.111048
H132  H     H_    0.674491 0.231142 0.433600 0.111047
H133  H     H_    0.325509 0.231142 0.566400 0.111047
H134  H     H_    0.178841 0.752497 0.550909 0.132798
H135  H     H_    0.821159 0.752497 0.449091 0.132798
H136  H     H_    0.678841 0.252497 0.550909 0.132798
H137  H     H_    0.790754 0.760208 0.914119 0.100111
H138  H     H_    0.321158 0.252497 0.449091 0.132798
H139  H     H_    0.138775 0.617406 0.565515 0.111919
H140  H     H_    0.861225 0.617406 0.434484 0.111919
H141  H     H_    0.638775 0.117406 0.565515 0.111919
H142  H     H_    0.361225 0.117406 0.434484 0.111919
H143  H     H_    0.720273 0.882435 0.453212 0.116841
H144  H     H_    0.279727 0.882434 0.546788 0.116841
H145  H     H_    0.220273 0.382435 0.453212 0.116841
H146  H     H_    0.779727 0.382435 0.546788 0.116841
H147  H     H_    0.696366 0.938400 0.574251 0.109891
H148  H     H_    0.709246 0.260208 0.085881 0.100111
H149  H     H_    0.303634 0.938400 0.425749 0.109891
H150  H     H_    0.196366 0.438400 0.574251 0.109891
H151  H     H_    0.803634 0.438400 0.425749 0.109891
H152  H     H_    0.343455 0.614579 0.413468 0.178134
H153  H     H_    0.656545 0.614579 0.586532 0.178134
H154  H     H_    0.843455 0.114579 0.413468 0.178134
H155  H     H_    0.156545 0.114579 0.586532 0.178134
H156  H     H_    0.290898 0.740277 0.425292 0.103574
H157  H     H_    0.709102 0.740277 0.574708 0.103574
H158  H     H_    0.790898 0.240277 0.425292 0.103574
H159  H     H_    0.290754 0.260208 0.914119 0.100111
H160  H     H_    0.209102 0.240277 0.574708 0.103574
H161  H     H_    0.334900 0.729544 0.544391 0.100503
H162  H     H_    0.665100 0.729544 0.455609 0.100503
H163  H     H_    0.834900 0.229544 0.544391 0.100503
H164  H     H_    0.165100 0.229544 0.455609 0.100503
H165  H     H_    0.353349 0.578903 0.533736 0.120358
H166  H     H_    0.646651 0.578903 0.466264 0.120357
H167  H     H_    0.853349 0.078903 0.533736 0.120358
H168  H     H_    0.146650 0.078903 0.466264 0.120357
H169  H     H_    0.304284 0.429281 0.461776 0.116767
H170  H     H_    0.276445 0.799918 0.958480 0.113613
H171  H     H_    0.695716 0.429281 0.538224 0.116767
H172  H     H_    0.804284 0.929281 0.461776 0.116767
H173  H     H_    0.195716 0.929281 0.538224 0.116767
H174  H     H_    0.287548 0.424644 0.581835 0.098442
H175  H     H_    0.712452 0.424644 0.418165 0.098441
H176  H     H_    0.787548 0.924644 0.581835 0.098442
H177  H     H_    0.212452 0.924644 0.418165 0.098441
H178  H     H_    0.305686 0.425168 0.050443 0.098878
H179  H     H_    0.694314 0.425168 0.949557 0.098878
H180  H     H_    0.805686 0.925168 0.050443 0.098878
O1    O     O_R   0.214130 0.708570 0.829890 -0.525548
O2    O     O_R   0.542830 0.717300 0.331620 -0.499377
O3    O     O_R   0.957170 0.217300 0.668380 -0.499377
O4    O     O_R   0.042830 0.217300 0.331620 -0.499378
O5    O     O_R   0.320870 0.624890 0.673130 -0.518705
O6    O     O_R   0.679130 0.624890 0.326870 -0.518704
O7    O     O_R   0.820870 0.124890 0.673130 -0.518705
O8    O     O_R   0.179130 0.124890 0.326870 -0.518704
O9    O     O_3   0.334430 0.834430 0.749680 -0.272767
O10   O     O_3   0.665570 0.834430 0.250320 -0.272767
O11   O     O_3   0.834430 0.334430 0.749680 -0.272768
O12   O     O_R   0.785870 0.708570 0.170110 -0.525548
O13   O     O_3   0.165570 0.334430 0.250320 -0.272768
O14   O     O_R   0.236050 0.959150 0.825270 -0.523880
O15   O     O_R   0.763950 0.959150 0.174730 -0.523880
O16   O     O_R   0.736050 0.459150 0.825270 -0.523880
O17   O     O_R   0.263950 0.459150 0.174730 -0.523880
O18   O     O_R   0.332100 0.076650 0.832310 -0.543098
O19   O     O_R   0.667900 0.076650 0.167690 -0.543098
O20   O     O_R   0.832100 0.576650 0.832310 -0.543098
O21   O     O_R   0.167900 0.576650 0.167690 -0.543098
O22   O     O_R   0.446500 0.918620 0.826240 -0.511810
O23   O     O_R   0.714130 0.208570 0.829890 -0.525548
O24   O     O_R   0.553500 0.918620 0.173760 -0.511810
O25   O     O_R   0.946500 0.418620 0.826240 -0.511810
O26   O     O_R   0.053500 0.418620 0.173760 -0.511810
O27   O     O_R   0.457310 0.715830 0.831280 -0.518291
O28   O     O_R   0.542690 0.715830 0.168720 -0.518291
O29   O     O_R   0.957310 0.215830 0.831280 -0.518291
O30   O     O_R   0.042690 0.215830 0.168720 -0.518291
O31   O     O_R   0.321000 0.623520 0.824130 -0.517794
O32   O     O_R   0.679000 0.623520 0.175870 -0.517794
O33   O     O_R   0.821000 0.123520 0.824130 -0.517794
O34   O     O_R   0.285870 0.208570 0.170110 -0.525548
O35   O     O_R   0.179000 0.123520 0.175870 -0.517794
O36   O     O_R   0.213990 0.710040 0.667000 -0.533667
O37   O     O_R   0.786010 0.710040 0.333000 -0.533667
O38   O     O_R   0.713990 0.210040 0.667000 -0.533667
O39   O     O_R   0.286010 0.210040 0.333000 -0.533667
O40   O     O_R   0.235920 0.960520 0.674260 -0.524824
O41   O     O_R   0.764080 0.960520 0.325740 -0.524824
O42   O     O_R   0.735920 0.460520 0.674260 -0.524824
O43   O     O_R   0.264080 0.460520 0.325740 -0.524824
O44   O     O_R   0.331960 0.078120 0.669410 -0.534424
O45   O     O_R   0.446360 0.919990 0.675230 -0.519570
O46   O     O_R   0.668040 0.078120 0.330590 -0.534423
O47   O     O_R   0.831960 0.578120 0.669410 -0.534424
O48   O     O_R   0.168040 0.578120 0.330590 -0.534423
O49   O     O_3   0.315860 0.752124 0.083552 -0.600159
O50   O     O_3   0.684140 0.752124 0.916448 -0.600159
O51   O     O_3   0.815860 0.252124 0.083552 -0.600159
O52   O     O_3   0.184140 0.252124 0.916448 -0.600159
O53   O     O_3   0.459799 0.629989 0.421166 -0.610872
O54   O     O_3   0.540201 0.629990 0.578834 -0.610872
O55   O     O_3   0.959799 0.129990 0.421166 -0.610872
O56   O     O_R   0.553640 0.919990 0.324770 -0.519570
O57   O     O_3   0.040201 0.129990 0.578833 -0.610872
O58   O     O_3   0.547380 0.626418 0.936571 -0.737178
O59   O     O_3   0.452620 0.626418 0.063428 -0.737178
O60   O     O_3   0.047380 0.126418 0.936571 -0.737178
O61   O     O_3   0.952620 0.126418 0.063428 -0.737178
O62   O     O_R   0.946360 0.419990 0.675230 -0.519570
O63   O     O_R   0.053640 0.419990 0.324770 -0.519570
O64   O     O_R   0.457170 0.717300 0.668380 -0.499377

loop_
_geom_bond_atom_site_label_1
_geom_bond_atom_site_label_2
_ccdc_geom_bond_type
C87   O25   A    
C132  H149  S    
C75   H98   S    
C77   H46   S    
C41   H62   S    
C71   C137  S    
C23   C112  S    
C58   C66   S    
C26   O49   S    
C14   C21   S    
C37   C38   S    
C42   H64   S    
C108  H135  S    
C95   C99   S    
C54   C63   S    
C33   H43   S    
C34   H45   S    
C52   H15   S    
C114  C131  S    
Cr12  O5    S    
Cr7   O17   S    
Cr1   O14   S    
C109  C127  S    
C130  H175  S    
C103  C120  S    
Cr1   O36   S    
Cr5   O12   S    
C89   H103  S    
C70   C74   S    
C56   H79   S    
C81   O53   S    
C42   H65   S    
C44   H69   S    
C116  C138  S    
C73   H96   S    
C69   C135  S    
C70   C136  S    
C117  C139  S    
Cr8   O18   S    
C137  O34   A    
C35   C134  S    
C21   C90   S    
C45   C47   S    
C105  H132  S    
C13   H6    S    
C43   H66   S    
C49   H81   S    
C106  H133  S    
C144  O42   A    
C79   O21   A    
C111  H145  S    
C32   O51   S    
C17   C21   S    
C19   C23   S    
Cr6   O11   S    
Cr12  O9    S    
C9    O37   A    
C50   H82   S    
C16   C20   S    
C11   O39   A    
C114  H172  S    
C111  H169  S    
C141  H164  S    
Cr3   O3    S    
C26   H26   S    
Cr10  O25   S    
C59   H126  S    
Cr6   O42   S    
C83   C100  S    
Cr3   O29   S    
C125  C129  S    
C114  H143  S    
C119  C141  S    
C37   H52   S    
C29   H33   S    
C51   H86   S    
C53   C71   S    
Cr1   O9    S    
C8    O5    A    
Cr5   O15   S    
Cr11  O26   S    
C1    O14   A    
C118  C140  S    
Cr9   O46   S    
C125  C138  S    
C6    O62   A    
C59   C63   S    
C60   C64   S    
C88   O30   A    
C13   H180  S    
C91   C94   S    
C31   H39   S    
Cr4   O30   S    
C110  H142  S    
Cr4   O4    S    
C44   H71   S    
C127  C131  S    
C10   O7    A    
C93   H123  S    
C61   C65   S    
C81   C98   S    
C106  C124  S    
Cr6   O38   S    
Cr9   O56   S    
C94   C98   S    
C119  H160  S    
C103  C107  S    
C108  C126  S    
Cr6   O16   S    
C45   H72   S    
C110  C128  S    
C109  H136  S    
Cr4   O35   S    
C134  H4    S    
C130  H151  S    
C10   O38   A    
C46   H9    S    
C9    O6    A    
C106  H129  S    
C84   C102  S    
C69   C77   S    
C11   O8    A    
H88   O59   S    
C94   H117  S    
C14   H113  S    
C103  H130  S    
C76   H170  S    
C19   C123  S    
C95   H118  S    
C135  O12   A    
C64   C68   S    
C62   C80   S    
C36   C37   S    
Cr2   O2    S    
C104  H127  S    
Cr2   O28   S    
C15   C25   S    
C30   H37   S    
C12   C22   S    
C67   C72   S    
C27   H29   S    
C53   H16   S    
C60   H137  S    
C34   H48   S    
C113  H146  S    
C141  H168  S    
C51   H84   S    
C87   O29   A    
C30   H36   S    
C17   H1    S    
C34   H47   S    
C48   H77   S    
C91   H105  S    
C6    C102  S    
C121  C144  S    
Cr9   O10   S    
C122  C143  S    
C129  H174  S    
C92   C97   S    
C33   C34   S    
C115  C132  S    
Cr7   O39   S    
C117  H153  S    
C126  C139  S    
C134  H178  S    
C113  C130  S    
C62   C66   S    
C135  O32   A    
C107  C125  S    
C39   C40   S    
Cr1   O40   S    
C85   O27   A    
C81   H99   S    
C46   H14   S    
C92   H124  S    
C43   H67   S    
C12   H112  S    
C29   C30   S    
C28   H30   S    
C8    C125  S    
C83   C84   S    
C139  H166  S    
C35   C67   S    
C40   H60   S    
C35   H12   S    
C38   H54   S    
C25   C123  S    
C20   H115  S    
C61   O51   S    
C16   C23   S    
C142  O44   A    
C127  C140  S    
C60   O50   S    
C94   H109  S    
C105  C109  S    
Cr7   O43   S    
Cr10  O62   S    
Cr6   O23   S    
Cr7   O13   S    
C12   C14   S    
C41   H61   S    
H87   O58   S    
C133  O1    A    
C83   O55   S    
C89   C98   S    
C7    O4    A    
C96   C100  S    
C3    O43   A    
C39   H56   S    
C72   H95   S    
C13   C65   S    
C55   H20   S    
C55   C73   S    
C113  C121  S    
C49   C50   S    
C4    C99   S    
C91   C99   S    
C44   H70   S    
C59   C76   S    
C53   H11   S    
Cr11  O63   S    
Cr9   O24   S    
Cr12  O64   S    
C88   O26   A    
C82   C99   S    
C29   O50   S    
C36   H50   S    
C24   H3    S    
C132  H177  S    
C47   H74   S    
C58   H18   S    
C15   C19   S    
C110  H138  S    
C26   C27   S    
C22   C101  S    
Cr4   O8    S    
C49   H80   S    
Cr10  O47   S    
C28   H32   S    
C30   C31   S    
C144  O47   A    
C107  H139  S    
Cr3   O11   S    
C20   C25   S    
C126  C130  S    
C18   H93   S    
C25   C88   S    
C91   H121  S    
C59   O49   S    
C32   H42   S    
C16   H116  S    
C20   C112  S    
C111  C129  S    
C86   O28   A    
C62   H159  S    
C12   C17   S    
Cr4   O13   S    
C69   C73   S    
C54   H92   S    
C15   H114  S    
C128  C141  S    
C97   C102  S    
C107  H134  S    
C24   C66   S    
C77   H2    S    
C42   O54   S    
C26   H27   S    
C118  H158  S    
C119  H155  S    
C37   H51   S    
C82   H100  S    
Cr2   O6    S    
C78   H57   S    
C41   H63   S    
Cr2   O32   S    
C116  H152  S    
H91   O61   S    
C21   C85   S    
C56   C74   S    
C7    C100  S    
C8    O36   A    
Cr12  O27   S    
H89   O60   S    
C63   C134  S    
C58   H90   S    
C112  C123  S    
C57   O15   A    
C19   H104  S    
C117  H157  S    
C33   H44   S    
C24   C53   S    
Cr9   O19   S    
C115  H144  S    
C18   C90   S    
C54   H19   S    
C89   C95   S    
C5    O56   A    
C80   H68   S    
C13   C52   S    
C129  H150  S    
C86   O24   A    
C50   C51   S    
C101  O59   S    
C55   H94   S    
C4    O45   A    
C115  H173  S    
C95   H108  S    
C118  H154  S    
C140  H167  S    
C28   H31   S    
C24   H7    S    
C42   C43   S    
Cr2   O10   S    
C104  C108  S    
C131  H147  S    
C140  H163  S    
C50   H83   S    
C115  C124  S    
C133  O31   A    
Cr10  O11   S    
Cr11  O21   S    
C57   C65   S    
C93   C102  S    
Cr1   O1    S    
C35   H8    S    
C56   H17   S    
C32   C33   S    
C18   C22   S    
Cr5   O41   S    
C131  H176  S    
C74   H21   S    
C136  O33   A    
C83   H101  S    
C142  O40   A    
C36   H49   S    
C22   C86   S    
C97   H120  S    
C45   O55   S    
C74   H97   S    
C62   O52   S    
C97   H110  S    
C138  H165  S    
C3    O48   A    
C48   H78   S    
C56   C65   S    
C82   O54   S    
C68   O20   A    
C70   C78   S    
C14   C18   S    
C43   C44   S    
C123  O61   S    
C81   C82   S    
C108  H140  S    
C63   C79   S    
C119  C124  S    
C2    C46   S    
Cr7   O34   S    
C32   H41   S    
C61   H148  S    
C80   H24   S    
C84   H102  S    
C67   C133  S    
C84   O57   S    
Cr8   O22   S    
C118  C122  S    
C31   H40   S    
C136  O23   A    
C47   H75   S    
C15   C16   S    
C105  H128  S    
C73   H25   S    
C75   H22   S    
C117  C121  S    
C27   H28   S    
C46   C69   S    
C17   C101  S    
C6    O3    A    
C52   H10   S    
C79   O17   A    
C39   O53   S    
Cr10  O20   S    
C1    O18   A    
C105  C122  S    
C38   H55   S    
C139  H162  S    
Cr8   O9    S    
C96   H111  S    
C23   C87   S    
C5    O2    A    
C124  C142  S    
C45   H73   S    
C29   H34   S    
C128  C132  S    
C2    H5    S    
C71   C80   S    
C2    C64   S    
C58   C75   S    
Cr3   O7    S    
C60   C77   S    
Cr3   O33   S    
Cr8   O44   S    
C51   H85   S    
Cr5   O37   S    
C104  C121  S    
C78   H13   S    
C85   O22   A    
C111  C120  S    
C143  O46   A    
C48   H76   S    
C90   C101  S    
C4    O64   A    
C49   O57   S    
C112  O60   S    
C47   C48   S    
C61   C78   S    
C55   C64   S    
C7    O63   A    
C1    C66   S    
C68   O16   A    
C116  H156  S    
C40   C41   S    
C109  H141  S    
C93   C96   S    
Cr5   O10   S    
Cr12  O31   S    
C10   C127  S    
C57   O19   A    
C92   C100  S    
C106  C110  S    
C2    H179  S    
C39   H58   S    
C31   H38   S    
Cr11  O48   S    
C9    C126  S    
C36   O52   S    
C11   C128  S    
C113  H171  S    
C76   H35   S    
C71   C75   S    
C40   H59   S    
C89   H122  S    
C90   O58   S    
C38   H53   S    
Cr8   O45   S    
C116  C120  S    
Cr11  O13   S    
C138  H161  S    
C52   C70   S    
C3    C120  S    
C104  H131  S    
C114  C122  S    
C54   C72   S    
C5    C98   S    
C27   C28   S    
C96   H119  S    
C67   C76   S    
C143  O41   A    
C72   H23   S    
C103  H125  S    
C92   H106  S    
C93   H107  S    
C137  O35   A    
