data_mof_unit_3740.cif
_audit_creation_date              2012-12-10T17:27:47-0500
_audit_creation_method            fapswitch 2.2
_symmetry_space_group_name_H-M    P1
_symmetry_Int_Tables_number       1
_space_group_crystal_system       triclinic
_cell_length_a                    21.686945
_cell_length_b                    21.684867
_cell_length_c                    39.033357
_cell_angle_alpha                 91.14833
_cell_angle_beta                  91.180204
_cell_angle_gamma                 93.039358
_cell_volume                      18322.7332046

loop_
_atom_site_label
_atom_site_type_symbol
_atom_type_description
_atom_site_fract_x
_atom_site_fract_y
_atom_site_fract_z
_atom_type_partial_charge
C1    C     C_R   0.501956 0.120621 0.501118 0.877152
C2    C     C_R   0.698451 0.359511 0.443446 0.170178
C3    C     C_R   0.002705 0.500827 0.567406 0.874461
C4    C     C_R   0.999240 0.498252 0.932600 0.879679
C5    C     C_R   0.499422 0.999444 0.932684 0.860593
C6    C     C_R   0.000600 0.500501 0.067305 0.860705
C7    C     C_R   0.501277 0.000724 0.067401 0.879449
C8    C     C_R   0.443911 0.014858 0.375501 0.081376
C9    C     C_R   0.971198 0.446823 0.375571 0.075569
C10   C     C_R   0.548059 0.969541 0.375860 0.093696
C11   C     C_R   0.027466 0.549426 0.376864 0.073602
C12   C     C_R   0.450307 0.972555 0.623097 0.074878
C13   C     C_R   0.624038 0.721330 0.440608 0.164216
C14   C     C_R   0.988763 0.556483 0.624717 0.080039
C15   C     C_R   0.553116 0.028400 0.624522 0.074147
C16   C     C_R   0.031581 0.451216 0.623900 0.094325
C17   C     C_R   0.944874 0.516451 0.875380 0.087599
C18   C     C_R   0.471366 0.947077 0.875512 0.074680
C19   C     C_R   0.047752 0.468413 0.876003 0.091689
C20   C     C_R   0.527624 0.049679 0.876928 0.074918
C21   C     C_R   0.950698 0.471317 0.122934 0.072883
C22   C     C_R   0.481172 0.054501 0.124603 0.089489
C23   C     C_R   0.053170 0.527885 0.124511 0.075529
C24   C     C_R   0.292061 0.633453 0.438670 0.168586
C25   C     C_R   0.529240 0.951634 0.124003 0.091532
C26   C     C_R   0.444375 0.011356 0.339628 -0.206432
C27   C     C_R   0.973729 0.446928 0.339726 -0.202877
C28   C     C_R   0.545769 0.971671 0.340035 -0.204157
C29   C     C_R   0.026701 0.547807 0.341080 -0.201110
C30   C     C_R   0.451785 0.973309 0.658873 -0.201320
C31   C     C_R   0.991142 0.554846 0.660635 -0.207089
C32   C     C_R   0.552863 0.025865 0.660359 -0.202679
C33   C     C_R   0.028212 0.452329 0.659679 -0.203714
C34   C     C_R   0.945526 0.512578 0.839476 -0.204467
C35   C     C_R   0.370921 0.710156 0.564747 0.169797
C36   C     C_R   0.473872 0.947352 0.839673 -0.202700
C37   C     C_R   0.045728 0.470350 0.840162 -0.203394
C38   C     C_R   0.526921 0.048201 0.841156 -0.201013
C39   C     C_R   0.952158 0.471759 0.158721 -0.201323
C40   C     C_R   0.483937 0.053086 0.160519 -0.204645
C41   C     C_R   0.052906 0.525032 0.160339 -0.202744
C42   C     C_R   0.525968 0.952786 0.159757 -0.203545
C43   C     C_R   0.495122 0.992172 0.322059 0.029455
C44   C     C_R   0.000900 0.496904 0.322405 0.029991
C45   C     C_R   0.502702 0.998910 0.677604 0.030191
C46   C     C_R   0.729742 0.627435 0.564020 0.169755
C47   C     C_R   0.008179 0.502878 0.677925 0.029419
C48   C     C_R   0.995807 0.491926 0.822047 0.028262
C49   C     C_R   0.501088 0.997398 0.822427 0.029994
C50   C     C_R   0.002866 0.497679 0.177528 0.030073
C51   C     C_R   0.504006 0.002446 0.177896 0.028121
C52   C     C_R   0.497047 0.993918 0.394548 -0.117645
C53   C     C_R   0.999286 0.498428 0.394736 -0.107477
C54   C     C_R   0.501492 0.000523 0.605282 -0.108091
C55   C     C_R   0.008120 0.502968 0.605453 -0.118237
C56   C     C_R   0.997255 0.494192 0.894563 -0.116942
C57   C     C_R   0.639770 0.300973 0.557330 0.170714
C58   C     C_R   0.499461 0.998578 0.894740 -0.107861
C59   C     C_R   0.001625 0.499965 0.105222 -0.107180
C60   C     C_R   0.504108 0.002449 0.105431 -0.117118
C61   C     C_R   0.501765 0.000551 0.215436 0.306166
C62   C     C_R   0.003126 0.496707 0.215204 0.304466
C63   C     C_R   0.502207 0.997028 0.784771 0.304481
C64   C     C_R   0.997425 0.493871 0.784431 0.306003
C65   C     C_R   0.004912 0.500581 0.715477 0.305857
C66   C     C_R   0.503060 0.997827 0.715264 0.304380
C67   C     C_R   0.002072 0.496321 0.284732 0.304465
C68   C     C_R   0.278266 0.373523 0.558283 0.164808
C69   C     C_R   0.496201 0.994250 0.284507 0.305856
C70   C     C_R   0.428914 0.182160 0.451817 -0.196240
C71   C     C_R   0.800308 0.404832 0.459078 -0.222270
C72   C     C_R   0.564785 0.810911 0.451755 -0.191458
C73   C     C_R   0.193896 0.596082 0.460760 -0.230316
C74   C     C_R   0.405027 0.807037 0.540037 -0.232200
C75   C     C_R   0.818491 0.571524 0.548073 -0.193312
C76   C     C_R   0.594489 0.199321 0.541344 -0.222860
C77   C     C_R   0.189001 0.433484 0.547657 -0.190417
C78   C     C_R   0.929169 0.682040 0.951544 -0.196645
C79   C     C_R   0.873890 0.771302 0.935461 0.168263
C80   C     C_R   0.300551 0.904827 0.959132 -0.221660
C81   C     C_R   0.068192 0.311298 0.953090 -0.190942
C82   C     C_R   0.692829 0.094349 0.959635 -0.233139
C83   C     C_R   0.902131 0.305676 0.038012 -0.228335
C84   C     C_R   0.317814 0.071337 0.048247 -0.196292
C85   C     C_R   0.094392 0.699338 0.041396 -0.221995
C86   C     C_R   0.688974 0.934958 0.048191 -0.191547
C87   C     C_R   0.385542 0.209078 0.431005 -0.175977
C88   C     C_R   0.762543 0.362227 0.439728 -0.165256
C89   C     C_R   0.608471 0.781203 0.432647 -0.168739
C90   C     C_R   0.198811 0.859086 0.943630 0.170566
C91   C     C_R   0.228070 0.636336 0.440188 -0.165247
C92   C     C_R   0.366627 0.773766 0.561904 -0.167953
C93   C     C_R   0.792335 0.616409 0.568083 -0.172890
C94   C     C_R   0.636963 0.236832 0.560892 -0.165409
C95   C     C_R   0.218579 0.389259 0.566472 -0.174676
C96   C     C_R   0.885548 0.709059 0.930921 -0.175251
C97   C     C_R   0.262913 0.861907 0.939928 -0.165362
C98   C     C_R   0.113093 0.282054 0.934710 -0.175354
C99   C     C_R   0.725853 0.131628 0.937055 -0.166288
C100  C     C_R   0.860469 0.271078 0.057578 -0.165445
C101  C     C_R   0.128193 0.222055 0.942731 0.165575
C102  C     C_R   0.290770 0.115618 0.068415 -0.175672
C103  C     C_R   0.136752 0.736953 0.060971 -0.165612
C104  C     C_R   0.718526 0.891296 0.067397 -0.171716
C105  C     C_3   0.392603 0.054731 0.389548 -0.383740
C106  C     C_3   0.339697 0.025011 0.411391 -0.267491
C107  C     C_3   0.281870 0.063801 0.411808 -0.946729
C108  C     C_3   0.928974 0.396362 0.391125 -0.391978
C109  C     C_3   0.961478 0.339444 0.404465 -0.293521
C110  C     C_3   0.914297 0.289534 0.416577 -0.923028
C111  C     C_3   0.599235 0.928409 0.389537 -0.427187
C112  C     C_R   0.879380 0.498005 0.498875 0.877271
C113  C     C_R   0.789490 0.127021 0.934030 0.169069
C114  C     C_3   0.646371 0.952596 0.417837 -0.267939
C115  C     C_3   0.710780 0.926450 0.415250 -0.924599
C116  C     C_3   0.067865 0.601288 0.394190 -0.391734
C117  C     C_3   0.033619 0.659225 0.404585 -0.291958
C118  C     C_3   0.077985 0.708587 0.421698 -0.917346
C119  C     C_3   0.398358 0.932325 0.605747 -0.392862
C120  C     C_3   0.340491 0.966708 0.595329 -0.292367
C121  C     C_3   0.290768 0.922389 0.578483 -0.918122
C122  C     C_3   0.951229 0.609569 0.610569 -0.381083
C123  C     C_3   0.983687 0.664312 0.591508 -0.286930
C124  C     C_R   0.863739 0.207094 0.059318 0.166840
C125  C     C_3   0.941234 0.719068 0.588077 -0.944543
C126  C     C_3   0.603710 0.070496 0.609041 -0.392530
C127  C     C_3   0.660644 0.037801 0.595821 -0.278952
C128  C     C_3   0.709321 0.085487 0.582052 -0.904093
C129  C     C_3   0.073166 0.400516 0.610161 -0.426930
C130  C     C_3   0.049126 0.353188 0.581888 -0.263204
C131  C     C_3   0.077676 0.289682 0.583395 -0.938681
C132  C     C_3   0.894377 0.557856 0.889090 -0.403110
C133  C     C_3   0.844572 0.531813 0.913954 -0.270533
C134  C     C_3   0.782930 0.563704 0.911789 -0.962040
C135  C     C_R   0.228642 0.127485 0.063555 0.168622
C136  C     C_3   0.429249 0.896510 0.891029 -0.391856
C137  C     C_3   0.461965 0.839624 0.904240 -0.288229
C138  C     C_3   0.414817 0.790132 0.917094 -0.915508
C139  C     C_3   0.098151 0.426437 0.889841 -0.425285
C140  C     C_3   0.146441 0.450710 0.917623 -0.258406
C141  C     C_3   0.209728 0.421536 0.915981 -0.956316
C142  C     C_3   0.568008 0.101482 0.894293 -0.393364
C143  C     C_3   0.533828 0.159488 0.904668 -0.292652
C144  C     C_3   0.578332 0.209237 0.921348 -0.917986
C145  C     C_3   0.898879 0.431114 0.105385 -0.390596
C146  C     C_R   0.139698 0.801058 0.057277 0.170725
C147  C     C_3   0.840827 0.465544 0.095384 -0.292024
C148  C     C_3   0.791206 0.421488 0.078274 -0.917704
C149  C     C_3   0.440211 0.105513 0.110928 -0.410681
C150  C     C_3   0.465360 0.153407 0.084741 -0.266699
C151  C     C_3   0.436829 0.216808 0.087355 -0.960466
C152  C     C_3   0.103665 0.570350 0.109150 -0.392035
C153  C     C_3   0.160528 0.538090 0.095564 -0.293741
C154  C     C_3   0.210419 0.585479 0.083664 -0.923019
C155  C     C_3   0.572104 0.902017 0.110321 -0.423770
C156  C     C_3   0.548731 0.853738 0.082369 -0.260580
C157  C     C_R   0.778456 0.875755 0.059554 0.164103
C158  C     C_3   0.577349 0.790413 0.084750 -0.955080
C159  C     C_3   0.326889 0.303078 0.413552 -0.425666
C160  C     C_3   0.276997 0.259541 0.395817 -0.357515
C161  C     C_3   0.230369 0.295792 0.375767 -0.866771
C162  C     C_3   0.654116 0.313503 0.424266 -0.420982
C163  C     C_3   0.684725 0.264098 0.402625 -0.364214
C164  C     C_3   0.636719 0.218528 0.385648 -0.852896
C165  C     C_3   0.673400 0.687176 0.422219 -0.425132
C166  C     C_3   0.712468 0.725766 0.397147 -0.361781
C167  C     C_3   0.759217 0.686481 0.379460 -0.863736
C168  C     C_R   0.410492 0.306449 0.459494 -0.213841
C169  C     C_3   0.332313 0.675051 0.416367 -0.425174
C170  C     C_3   0.298004 0.705496 0.386819 -0.358340
C171  C     C_3   0.342875 0.744697 0.365470 -0.859592
C172  C     C_3   0.331819 0.671535 0.589098 -0.427415
C173  C     C_3   0.308219 0.707401 0.620215 -0.355748
C174  C     C_3   0.271787 0.664287 0.643849 -0.862846
C175  C     C_3   0.698393 0.676158 0.584948 -0.424644
C176  C     C_3   0.742338 0.720801 0.606380 -0.358503
C177  C     C_3   0.706581 0.767881 0.626396 -0.866346
C178  C     C_3   0.685545 0.345095 0.576799 -0.421000
C179  C     C_R   0.673512 0.402331 0.465588 -0.207915
C180  C     C_3   0.734155 0.314243 0.598897 -0.365185
C181  C     C_3   0.779286 0.362058 0.616374 -0.852599
C182  C     C_3   0.312279 0.324221 0.576797 -0.423875
C183  C     C_3   0.271102 0.277781 0.596542 -0.359710
C184  C     C_3   0.309625 0.229209 0.613185 -0.866020
C185  C     C_3   0.826726 0.803121 0.913672 -0.426209
C186  C     C_3   0.777618 0.759595 0.895268 -0.357916
C187  C     C_3   0.731028 0.795905 0.875231 -0.866199
C188  C     C_3   0.154609 0.812753 0.924603 -0.420978
C189  C     C_3   0.185376 0.763021 0.903278 -0.364137
C190  C     C_R   0.590047 0.690373 0.465650 -0.200199
C191  C     C_3   0.137486 0.717135 0.886461 -0.852740
C192  C     C_3   0.178932 0.188476 0.925223 -0.424328
C193  C     C_3   0.221727 0.228751 0.902745 -0.360434
C194  C     C_3   0.271004 0.190525 0.886561 -0.865511
C195  C     C_3   0.828380 0.163430 0.908553 -0.426594
C196  C     C_3   0.791776 0.200103 0.882400 -0.357258
C197  C     C_3   0.835369 0.235706 0.858565 -0.855543
C198  C     C_3   0.819751 0.166585 0.080127 -0.422992
C199  C     C_3   0.792106 0.199158 0.111412 -0.352410
C200  C     C_3   0.750964 0.153943 0.131537 -0.857160
C201  C     C_R   0.320699 0.591190 0.459405 -0.217333
C202  C     C_3   0.196839 0.175190 0.084945 -0.425772
C203  C     C_3   0.240360 0.225156 0.102622 -0.358178
C204  C     C_3   0.204051 0.272387 0.122150 -0.865864
C205  C     C_3   0.185529 0.845230 0.076683 -0.421376
C206  C     C_3   0.234503 0.814434 0.098557 -0.364365
C207  C     C_3   0.279939 0.862287 0.115767 -0.852755
C208  C     C_3   0.812354 0.826171 0.077933 -0.425573
C209  C     C_3   0.773332 0.786729 0.102652 -0.360832
C210  C     C_3   0.812241 0.739502 0.120214 -0.864232
C211  C     C_R   0.411398 0.680500 0.543223 -0.216659
C212  C     C_R   0.497951 0.879564 0.500792 0.883988
C213  C     C_R   0.694101 0.589800 0.540649 -0.218402
C214  C     C_R   0.597286 0.326167 0.535058 -0.208610
C215  C     C_R   0.309546 0.408408 0.533691 -0.199161
C216  C     C_R   0.910509 0.806355 0.959463 -0.213899
C217  C     C_R   0.173720 0.902128 0.965580 -0.208727
C218  C     C_R   0.092375 0.190494 0.966854 -0.201567
C219  C     C_R   0.819097 0.086654 0.955562 -0.221372
C220  C     C_R   0.907573 0.178797 0.039562 -0.214635
C221  C     C_R   0.193620 0.090371 0.039779 -0.214311
C222  C     C_R   0.097277 0.826171 0.034950 -0.208288
C223  C     C_R   0.120479 0.502022 0.499208 0.881460
C224  C     C_R   0.809609 0.909864 0.034593 -0.199262
C225  C     C_R   0.458826 0.279920 0.478553 0.046811
C226  C     C_R   0.710830 0.449662 0.482836 0.048438
C227  C     C_R   0.540789 0.718472 0.482352 0.050070
C228  C     C_R   0.286321 0.547540 0.479152 0.054073
C229  C     C_R   0.453338 0.714151 0.522019 0.052803
C230  C     C_R   0.720344 0.541216 0.521679 0.047695
C231  C     C_R   0.550097 0.289055 0.517585 0.048090
C232  C     C_R   0.281495 0.458073 0.517314 0.048429
C233  C     C_R   0.958874 0.779817 0.978465 0.047256
C234  C     C_R   0.001963 0.620606 0.001055 0.878259
C235  C     C_R   0.210925 0.949590 0.982749 0.048234
C236  C     C_R   0.042377 0.218501 0.982914 0.048074
C237  C     C_R   0.785666 0.045757 0.977528 0.054481
C238  C     C_R   0.951884 0.213489 0.020346 0.053796
C239  C     C_R   0.220167 0.041560 0.021190 0.046196
C240  C     C_R   0.050092 0.789017 0.017509 0.047749
C241  C     C_R   0.781521 0.959026 0.017745 0.050502
C242  C     C_R   0.464465 0.216272 0.476694 0.082192
C243  C     C_R   0.775314 0.449180 0.481114 0.083039
C244  C     C_R   0.533269 0.781122 0.478227 0.079572
C245  C     C_R   0.379379 0.998031 0.999000 0.878578
C246  C     C_R   0.221792 0.550021 0.479999 0.085557
C247  C     C_R   0.450579 0.778683 0.520673 0.085513
C248  C     C_R   0.784009 0.535499 0.523483 0.081719
C249  C     C_R   0.550428 0.224559 0.519240 0.083588
C250  C     C_R   0.218839 0.465610 0.521425 0.081634
C251  C     C_R   0.964622 0.716156 0.976515 0.082927
C252  C     C_R   0.275425 0.949205 0.981088 0.083078
C253  C     C_R   0.035059 0.281217 0.978868 0.081770
C254  C     C_R   0.721244 0.048993 0.979166 0.084626
C255  C     C_R   0.949245 0.278031 0.019439 0.085710
C256  C     C_R   0.997971 0.379508 0.000795 0.882439
C257  C     C_R   0.283801 0.035702 0.023308 0.083602
C258  C     C_R   0.050431 0.724519 0.019186 0.082896
C259  C     C_R   0.718870 0.966593 0.021809 0.079931
C260  C     C_R   0.502195 0.315435 0.498869 -0.190192
C261  C     C_R   0.684635 0.497872 0.501367 -0.189336
C262  C     C_R   0.498173 0.685054 0.502340 -0.189987
C263  C     C_R   0.315046 0.501380 0.497910 -0.187484
C264  C     C_R   0.002164 0.815375 0.998822 -0.190109
C265  C     C_R   0.184600 0.997858 0.001141 -0.188876
C266  C     C_R   0.998650 0.184909 0.002018 -0.187182
C267  C     C_R   0.620430 0.002044 0.999250 0.884525
C268  C     C_R   0.814875 0.001349 0.997558 -0.191447
C269  C     C_R   0.506294 0.187936 0.499045 -0.209927
C270  C     C_R   0.812108 0.493507 0.501142 -0.209943
C271  C     C_R   0.492671 0.812276 0.499497 -0.208591
C272  C     C_R   0.187832 0.507059 0.500529 -0.209399
C273  C     C_R   0.006370 0.687874 0.998931 -0.209282
C274  C     C_R   0.312098 0.993596 0.001130 -0.209712
C275  C     C_R   0.992964 0.312133 0.999406 -0.210038
C276  C     C_R   0.687709 0.007257 0.000542 -0.209271
C277  C     C_R   0.619408 0.501321 0.500389 0.859019
C278  C     C_R   0.373902 0.271342 0.435477 0.169607
C279  C     C_R   0.498333 0.619350 0.500571 0.861043
C280  C     C_R   0.380649 0.500952 0.499471 0.861202
C281  C     C_R   0.498998 0.380638 0.499663 0.858724
C282  C     C_R   0.119371 0.001037 0.000342 0.858230
C283  C     C_R   0.999166 0.119338 0.000508 0.862487
C284  C     C_R   0.880609 0.001441 0.999406 0.861477
C285  C     C_R   0.998924 0.880615 0.999654 0.859129
C286  C     C_R   0.499208 0.998095 0.432595 0.877783
C287  C     C_R   0.999352 0.499418 0.432683 0.859488
C288  C     C_R   0.500577 0.000584 0.567322 0.859341
H1    H     H_    0.405722 0.027324 0.324794 0.147909
H2    H     H_    0.453090 0.908452 0.824941 0.150108
H3    H     H_    0.903876 0.708014 0.568675 0.258986
H4    H     H_    0.919641 0.731112 0.612716 0.260700
H5    H     H_    0.968001 0.760641 0.579175 0.253701
H6    H     H_    0.027528 0.680062 0.605088 0.213041
H7    H     H_    0.994402 0.652214 0.564931 0.255192
H8    H     H_    0.912848 0.588839 0.595643 0.179126
H9    H     H_    0.927536 0.631917 0.632300 0.186882
H10   H     H_    0.688831 0.115223 0.562135 0.253543
H11   H     H_    0.730597 0.115545 0.603248 0.252293
H12   H     H_    0.746553 0.060789 0.569365 0.245505
H13   H     H_    0.083052 0.452357 0.825612 0.147919
H14   H     H_    0.681763 0.011203 0.617149 0.202777
H15   H     H_    0.648592 0.003600 0.574663 0.246650
H16   H     H_    0.582756 0.098416 0.589035 0.188427
H17   H     H_    0.621808 0.104756 0.628904 0.189844
H18   H     H_    0.123058 0.290735 0.569873 0.251259
H19   H     H_    0.084924 0.273887 0.610392 0.263265
H20   H     H_    0.046026 0.254520 0.569253 0.250442
H21   H     H_    0.998164 0.346216 0.583174 0.234823
H22   H     H_    0.062491 0.370024 0.556299 0.255838
H23   H     H_    0.116651 0.424499 0.603325 0.168766
H24   H     H_    0.548353 0.086790 0.827730 0.150947
H25   H     H_    0.088172 0.371812 0.631761 0.198982
H26   H     H_    0.786465 0.608869 0.925873 0.254838
H27   H     H_    0.767509 0.571210 0.885025 0.268705
H28   H     H_    0.746664 0.534814 0.924590 0.255181
H29   H     H_    0.835941 0.481393 0.909383 0.225821
H30   H     H_    0.858950 0.541115 0.940977 0.258280
H31   H     H_    0.918912 0.599436 0.899322 0.167447
H32   H     H_    0.867788 0.576117 0.867214 0.195619
H33   H     H_    0.384643 0.809546 0.936913 0.255799
H34   H     H_    0.385478 0.769765 0.895540 0.255868
H35   H     H_    0.913592 0.450183 0.172090 0.151011
H36   H     H_    0.439539 0.752582 0.929449 0.247859
H37   H     H_    0.489474 0.819440 0.883340 0.207161
H38   H     H_    0.494781 0.851291 0.925796 0.250553
H39   H     H_    0.401340 0.917383 0.911057 0.188345
H40   H     H_    0.394988 0.878470 0.871155 0.191082
H41   H     H_    0.210827 0.380447 0.932617 0.251470
H42   H     H_    0.221982 0.407373 0.889652 0.265341
H43   H     H_    0.246361 0.455216 0.926327 0.254769
H44   H     H_    0.153701 0.501593 0.915974 0.233876
H45   H     H_    0.130139 0.438231 0.943441 0.255271
H46   H     H_    0.466613 0.090733 0.175589 0.146433
H47   H     H_    0.074005 0.383215 0.897087 0.168427
H48   H     H_    0.126239 0.410690 0.868184 0.198329
H49   H     H_    0.601032 0.191887 0.944757 0.257331
H50   H     H_    0.614290 0.224616 0.903107 0.252952
H51   H     H_    0.552822 0.250080 0.929195 0.249723
H52   H     H_    0.511638 0.179161 0.881740 0.209677
H53   H     H_    0.496872 0.148483 0.923035 0.248160
H54   H     H_    0.592154 0.082243 0.916289 0.200672
H55   H     H_    0.605508 0.116737 0.876841 0.185559
H56   H     H_    0.808423 0.400372 0.054396 0.256372
H57   H     H_    0.091774 0.545762 0.175124 0.150256
H58   H     H_    0.776524 0.384351 0.095972 0.252781
H59   H     H_    0.749969 0.446981 0.071100 0.249591
H60   H     H_    0.821085 0.486891 0.118529 0.209246
H61   H     H_    0.851784 0.503185 0.077416 0.247729
H62   H     H_    0.917791 0.407114 0.083164 0.200309
H63   H     H_    0.883695 0.393415 0.122727 0.186999
H64   H     H_    0.390595 0.215339 0.074346 0.253367
H65   H     H_    0.432295 0.233143 0.114222 0.269012
H66   H     H_    0.466438 0.251380 0.073638 0.254652
H67   H     H_    0.516359 0.159848 0.087439 0.229003
H68   H     H_    0.543470 0.915103 0.174235 0.148107
H69   H     H_    0.452142 0.138154 0.058222 0.256729
H70   H     H_    0.397358 0.081456 0.101900 0.167573
H71   H     H_    0.424210 0.133761 0.132767 0.197614
H72   H     H_    0.191437 0.616770 0.064414 0.257621
H73   H     H_    0.230689 0.613351 0.105642 0.258298
H74   H     H_    0.247953 0.561303 0.070989 0.249034
H75   H     H_    0.180266 0.509394 0.115897 0.209820
H76   H     H_    0.149033 0.506836 0.073512 0.252908
H77   H     H_    0.082659 0.598728 0.089406 0.187629
H78   H     H_    0.121826 0.604163 0.129211 0.192011
H79   H     H_    0.667686 0.215190 0.578478 0.133957
H80   H     H_    0.623801 0.791519 0.073006 0.253815
H81   H     H_    0.581385 0.774578 0.111538 0.267428
H82   H     H_    0.547802 0.755520 0.069704 0.253296
H83   H     H_    0.497747 0.846627 0.083338 0.235516
H84   H     H_    0.562583 0.869839 0.056694 0.255823
H85   H     H_    0.614775 0.927091 0.103143 0.167027
H86   H     H_    0.588451 0.874115 0.131950 0.199736
H87   H     H_    0.208901 0.329890 0.392777 0.263988
H88   H     H_    0.253615 0.320309 0.354472 0.261357
H89   H     H_    0.193443 0.263481 0.364658 0.247375
H90   H     H_    0.821595 0.642040 0.586610 0.135981
H91   H     H_    0.298255 0.227882 0.377281 0.217476
H92   H     H_    0.252202 0.231657 0.415346 0.227690
H93   H     H_    0.303230 0.336391 0.430123 0.204599
H94   H     H_    0.352201 0.329894 0.393793 0.204535
H95   H     H_    0.607637 0.195460 0.405245 0.263779
H96   H     H_    0.606690 0.242804 0.367515 0.260693
H97   H     H_    0.660599 0.182600 0.371095 0.248003
H98   H     H_    0.712210 0.286567 0.382134 0.219509
H99   H     H_    0.715777 0.237942 0.419281 0.226223
H100  H     H_    0.624200 0.289747 0.443321 0.210839
H101  H     H_    0.333172 0.798337 0.576138 0.138162
H102  H     H_    0.623557 0.339712 0.407262 0.206142
H103  H     H_    0.788780 0.664183 0.398664 0.263231
H104  H     H_    0.734720 0.650247 0.362981 0.260860
H105  H     H_    0.789133 0.716113 0.363041 0.247759
H106  H     H_    0.682373 0.744545 0.376908 0.220290
H107  H     H_    0.737654 0.764743 0.411288 0.222681
H108  H     H_    0.705101 0.668975 0.441910 0.204356
H109  H     H_    0.650443 0.647001 0.408037 0.208817
H110  H     H_    0.365103 0.782797 0.381559 0.261574
H111  H     H_    0.379177 0.716060 0.354694 0.260914
H112  H     H_    0.952987 0.407947 0.325045 0.150285
H113  H     H_    0.194808 0.367871 0.587395 0.143426
H114  H     H_    0.317323 0.765232 0.343900 0.248037
H115  H     H_    0.274300 0.669120 0.369981 0.224554
H116  H     H_    0.263114 0.736360 0.396976 0.216484
H117  H     H_    0.356681 0.711136 0.433069 0.207981
H118  H     H_    0.368115 0.646579 0.404841 0.205004
H119  H     H_    0.231231 0.641935 0.629794 0.261851
H120  H     H_    0.301386 0.628045 0.653784 0.260920
H121  H     H_    0.254871 0.691234 0.665964 0.248107
H122  H     H_    0.347971 0.730233 0.634874 0.225609
H123  H     H_    0.276831 0.743195 0.611744 0.215089
H124  H     H_    0.629678 0.805067 0.411717 0.135798
H125  H     H_    0.292235 0.648876 0.574305 0.206643
H126  H     H_    0.360333 0.634400 0.599086 0.204773
H127  H     H_    0.675891 0.792761 0.608961 0.264095
H128  H     H_    0.678432 0.744195 0.646190 0.261075
H129  H     H_    0.739537 0.802070 0.639498 0.246863
H130  H     H_    0.769323 0.694867 0.625262 0.218383
H131  H     H_    0.774877 0.745931 0.589233 0.225771
H132  H     H_    0.671241 0.703927 0.567026 0.203586
H133  H     H_    0.665413 0.652135 0.602258 0.205840
H134  H     H_    0.803080 0.391195 0.597057 0.263955
H135  H     H_    0.783906 0.331368 0.422134 0.133584
H136  H     H_    0.754492 0.392049 0.634265 0.260763
H137  H     H_    0.814661 0.338014 0.631270 0.248039
H138  H     H_    0.710942 0.286689 0.619114 0.219650
H139  H     H_    0.760774 0.283226 0.582492 0.225929
H140  H     H_    0.709960 0.374836 0.557907 0.210694
H141  H     H_    0.659073 0.375831 0.593538 0.206282
H142  H     H_    0.336350 0.204791 0.593614 0.263613
H143  H     H_    0.342057 0.251537 0.632684 0.261464
H144  H     H_    0.278728 0.194860 0.626108 0.247392
H145  H     H_    0.246882 0.301778 0.617329 0.218766
H146  H     H_    0.361554 0.180833 0.411486 0.139170
H147  H     H_    0.236236 0.254354 0.578706 0.225946
H148  H     H_    0.337869 0.297759 0.557472 0.205355
H149  H     H_    0.346862 0.347600 0.594782 0.206385
H150  H     H_    0.709007 0.829455 0.892339 0.263933
H151  H     H_    0.754458 0.821057 0.854218 0.261131
H152  H     H_    0.694515 0.763550 0.863741 0.247494
H153  H     H_    0.799610 0.728677 0.876632 0.218281
H154  H     H_    0.752649 0.730945 0.914403 0.226814
H155  H     H_    0.802385 0.835509 0.930481 0.204699
H156  H     H_    0.852002 0.830953 0.894316 0.204768
H157  H     H_    0.203980 0.670122 0.425947 0.136948
H158  H     H_    0.108321 0.694390 0.906134 0.263822
H159  H     H_    0.107522 0.741075 0.868141 0.260639
H160  H     H_    0.161468 0.680980 0.872142 0.248023
H161  H     H_    0.212933 0.785158 0.882711 0.219318
H162  H     H_    0.216383 0.737184 0.920132 0.226240
H163  H     H_    0.124619 0.789288 0.943732 0.210911
H164  H     H_    0.124110 0.838662 0.907411 0.205999
H165  H     H_    0.297681 0.167082 0.906585 0.263820
H166  H     H_    0.248904 0.155312 0.868495 0.261393
H167  H     H_    0.303295 0.221169 0.872042 0.247314
H168  H     H_    0.167244 0.715472 0.078721 0.133649
H169  H     H_    0.194744 0.248891 0.881604 0.219475
H170  H     H_    0.244825 0.266815 0.918587 0.225677
H171  H     H_    0.207907 0.168022 0.945475 0.205182
H172  H     H_    0.157005 0.149889 0.909338 0.207682
H173  H     H_    0.864388 0.270965 0.873510 0.261099
H174  H     H_    0.865815 0.203803 0.845061 0.259799
H175  H     H_    0.807891 0.259721 0.839038 0.247762
H176  H     H_    0.760529 0.167631 0.866741 0.221155
H177  H     H_    0.763663 0.234120 0.895854 0.218762
H178  H     H_    0.861697 0.195391 0.923145 0.208195
H179  H     H_    0.318677 0.140056 0.087864 0.142397
H180  H     H_    0.855640 0.130016 0.893970 0.202072
H181  H     H_    0.711997 0.134599 0.114864 0.260896
H182  H     H_    0.778054 0.115486 0.141184 0.260519
H183  H     H_    0.731402 0.178427 0.153854 0.247712
H184  H     H_    0.830201 0.219130 0.128668 0.223872
H185  H     H_    0.762765 0.236835 0.102955 0.214897
H186  H     H_    0.781924 0.146887 0.062644 0.206646
H187  H     H_    0.845736 0.127207 0.089932 0.204703
H188  H     H_    0.170393 0.293734 0.104797 0.263891
H189  H     H_    0.179021 0.249695 0.143444 0.261276
H190  H     H_    0.825231 0.294828 0.070823 0.137252
H191  H     H_    0.236394 0.309326 0.133219 0.247435
H192  H     H_    0.271556 0.204069 0.121488 0.218310
H193  H     H_    0.268723 0.249410 0.083102 0.226546
H194  H     H_    0.164017 0.198726 0.067989 0.204847
H195  H     H_    0.169470 0.150476 0.104701 0.204915
H196  H     H_    0.303418 0.891339 0.096299 0.263668
H197  H     H_    0.255464 0.892360 0.133765 0.260688
H198  H     H_    0.315552 0.838277 0.130504 0.248295
H199  H     H_    0.211638 0.786960 0.118922 0.219620
H200  H     H_    0.260829 0.783346 0.082033 0.226377
H201  H     H_    0.694362 0.870016 0.088235 0.142177
H202  H     H_    0.209661 0.875124 0.057754 0.210741
H203  H     H_    0.159142 0.875821 0.093553 0.206054
H204  H     H_    0.834583 0.710163 0.100930 0.263280
H205  H     H_    0.848428 0.763587 0.136903 0.260941
H206  H     H_    0.782332 0.709414 0.136402 0.247836
H207  H     H_    0.754426 0.816528 0.122975 0.220280
H208  H     H_    0.734413 0.761930 0.088249 0.224332
H209  H     H_    0.830855 0.794733 0.058219 0.204598
H210  H     H_    0.852319 0.848959 0.092385 0.208485
H211  H     H_    0.135519 0.306479 0.914309 0.147829
H212  H     H_    0.583418 0.954542 0.325402 0.147332
H213  H     H_    0.284403 0.830886 0.922466 0.133653
H214  H     H_    0.861415 0.680966 0.911426 0.141785
H215  H     H_    0.701071 0.164106 0.922204 0.137709
H216  H     H_    0.436309 0.134470 0.447928 0.163950
H217  H     H_    0.849000 0.402196 0.456319 0.166307
H218  H     H_    0.553074 0.856652 0.445222 0.144162
H219  H     H_    0.145764 0.603235 0.461411 0.176979
H220  H     H_    0.396712 0.854856 0.538537 0.178338
H221  H     H_    0.865998 0.563679 0.552288 0.162420
H222  H     H_    0.596980 0.150607 0.543970 0.165290
H223  H     H_    0.048079 0.586353 0.327599 0.150893
H224  H     H_    0.143410 0.445345 0.554324 0.145298
H225  H     H_    0.936765 0.634313 0.947337 0.161410
H226  H     H_    0.349246 0.902398 0.956320 0.166154
H227  H     H_    0.056812 0.356985 0.946462 0.148077
H228  H     H_    0.645133 0.103140 0.961434 0.178649
H229  H     H_    0.894960 0.353891 0.037508 0.177460
H230  H     H_    0.365393 0.063247 0.052853 0.159126
H231  H     H_    0.096875 0.650618 0.044120 0.166406
H232  H     H_    0.643147 0.946517 0.054493 0.145219
H233  H     H_    0.401021 0.354674 0.462621 0.145750
H234  H     H_    0.413095 0.952090 0.672302 0.150891
H235  H     H_    0.624162 0.397889 0.468844 0.155450
H236  H     H_    0.602058 0.643857 0.471552 0.140680
H237  H     H_    0.370411 0.593193 0.459193 0.164995
H238  H     H_    0.409240 0.630807 0.544017 0.166922
H239  H     H_    0.645744 0.599049 0.537754 0.147148
H240  H     H_    0.601860 0.375539 0.531897 0.156013
H241  H     H_    0.356289 0.396916 0.527975 0.138539
H242  H     H_    0.900990 0.854559 0.962649 0.146120
H243  H     H_    0.124345 0.897760 0.968750 0.155139
H244  H     H_    0.103592 0.143634 0.972528 0.138169
H245  H     H_    0.976031 0.593665 0.675615 0.148323
H246  H     H_    0.868664 0.087837 0.953782 0.171307
H247  H     H_    0.905881 0.129067 0.039776 0.163711
H248  H     H_    0.145408 0.099800 0.036457 0.144403
H249  H     H_    0.101887 0.875525 0.031723 0.155538
H250  H     H_    0.856171 0.897856 0.028795 0.140691
H251  H     H_    0.290269 0.105841 0.428887 0.255534
H252  H     H_    0.267345 0.078621 0.385711 0.262649
H253  H     H_    0.242860 0.035632 0.422846 0.252514
H254  H     H_    0.326477 0.976833 0.401580 0.213305
H255  H     H_    0.352413 0.023562 0.439263 0.254678
H256  H     H_    0.591853 0.046484 0.675089 0.149890
H257  H     H_    0.416089 0.094491 0.402286 0.169403
H258  H     H_    0.368529 0.076534 0.367750 0.188941
H259  H     H_    0.883394 0.308466 0.436026 0.257325
H260  H     H_    0.885976 0.269371 0.394738 0.258125
H261  H     H_    0.938692 0.251934 0.429078 0.248809
H262  H     H_    0.989753 0.319760 0.383940 0.209722
H263  H     H_    0.993176 0.350913 0.426334 0.252577
H264  H     H_    0.901035 0.417324 0.411078 0.187922
H265  H     H_    0.894765 0.378325 0.371231 0.192086
H266  H     H_    0.709157 0.875851 0.422473 0.250126
H267  H     H_    0.044043 0.413779 0.674088 0.147761
H268  H     H_    0.730431 0.931958 0.388615 0.262443
H269  H     H_    0.742769 0.952752 0.434404 0.247538
H270  H     H_    0.651867 0.003784 0.417358 0.236977
H271  H     H_    0.630409 0.937045 0.443285 0.254723
H272  H     H_    0.575515 0.884884 0.396532 0.167655
H273  H     H_    0.628077 0.913520 0.367970 0.202077
H274  H     H_    0.099813 0.690910 0.445276 0.257036
H275  H     H_    0.114611 0.723766 0.403807 0.252521
H276  H     H_    0.052572 0.749597 0.429362 0.249363
H277  H     H_    0.011952 0.679283 0.381612 0.208996
H278  H     H_    0.907572 0.529497 0.824464 0.146767
H279  H     H_    0.996228 0.648085 0.422665 0.247872
H280  H     H_    0.092315 0.582184 0.416164 0.199915
H281  H     H_    0.105167 0.616672 0.376648 0.186307
H282  H     H_    0.308196 0.899926 0.555034 0.257093
H283  H     H_    0.275319 0.886252 0.596610 0.252631
H284  H     H_    0.249960 0.947990 0.570663 0.249430
H285  H     H_    0.320735 0.988769 0.618259 0.209343
H286  H     H_    0.351666 0.003792 0.577057 0.248075
H287  H     H_    0.417475 0.908003 0.583777 0.200614
H288  H     H_    0.382939 0.894939 0.623237 0.185765
N1    N     N_R   0.535005 0.959171 0.266784 -0.185337
N2    N     N_R   0.541729 0.036244 0.768117 -0.184074
N3    N     N_R   0.963269 0.533884 0.766891 -0.183091
N4    N     N_R   0.463272 0.958065 0.765876 -0.183368
N5    N     N_R   0.042135 0.535641 0.234080 -0.183360
N6    N     N_R   0.537583 0.962113 0.232986 -0.185437
N7    N     N_R   0.963722 0.457425 0.231896 -0.183911
N8    N     N_R   0.462851 0.035862 0.233087 -0.183239
N9    N     N_R   0.041522 0.535547 0.268038 -0.183971
N10   N     N_R   0.460105 0.032751 0.267035 -0.183231
N11   N     N_R   0.963306 0.457133 0.265860 -0.183262
N12   N     N_R   0.542247 0.036540 0.734158 -0.183356
N13   N     N_R   0.038656 0.460489 0.733073 -0.185492
N14   N     N_R   0.463594 0.958560 0.731919 -0.184186
N15   N     N_R   0.966954 0.537185 0.732912 -0.183163
N16   N     N_R   0.035164 0.457369 0.766921 -0.185302
O1    O     O_R   0.551620 0.091530 0.500110 -0.623614
O2    O     O_R   0.408470 0.051620 0.000110 -0.625838
O3    O     O_R   0.948380 0.408470 0.000110 -0.633594
O4    O     O_R   0.591530 0.948380 0.000110 -0.624857
O5    O     O_R   0.051620 0.408470 0.999890 -0.625992
O6    O     O_R   0.408470 0.948380 0.999890 -0.623858
O7    O     O_R   0.948380 0.591530 0.999890 -0.624549
O8    O     O_R   0.591530 0.051620 0.999890 -0.634566
O9    O     O_R   0.551620 0.999930 0.449180 -0.639031
O10   O     O_R   0.000070 0.551620 0.449180 -0.626943
O11   O     O_R   0.448380 0.000070 0.449180 -0.636895
O12   O     O_R   0.908470 0.551620 0.500110 -0.618012
O13   O     O_R   0.999930 0.448380 0.449180 -0.628208
O14   O     O_R   0.551620 0.000070 0.550820 -0.627197
O15   O     O_R   0.000070 0.448380 0.550820 -0.638662
O16   O     O_R   0.448380 0.999930 0.550820 -0.627125
O17   O     O_R   0.999930 0.551620 0.550820 -0.632702
O18   O     O_R   0.051620 0.499930 0.949180 -0.639467
O19   O     O_R   0.500070 0.051620 0.949180 -0.626949
O20   O     O_R   0.948380 0.500070 0.949180 -0.639023
O21   O     O_R   0.499930 0.948380 0.949180 -0.627578
O22   O     O_R   0.051620 0.500070 0.050820 -0.628290
O23   O     O_R   0.448380 0.908470 0.500110 -0.635457
O24   O     O_R   0.500070 0.948380 0.050820 -0.638907
O25   O     O_R   0.948380 0.499930 0.050820 -0.626771
O26   O     O_R   0.499930 0.051620 0.050820 -0.640565
O27   O     O_R   0.591500 0.499930 0.528880 -0.630796
O28   O     O_R   0.500070 0.591500 0.528880 -0.636146
O29   O     O_R   0.408500 0.500070 0.528880 -0.627368
O30   O     O_R   0.499930 0.408500 0.528880 -0.624053
O31   O     O_R   0.591500 0.500070 0.471120 -0.623780
O32   O     O_R   0.500070 0.408500 0.471120 -0.630726
O33   O     O_R   0.408500 0.499930 0.471120 -0.635602
O34   O     O_R   0.091530 0.448380 0.500110 -0.625657
O35   O     O_R   0.499930 0.591500 0.471120 -0.627399
O36   O     O_R   0.091500 0.999930 0.028880 -0.630385
O37   O     O_R   0.000070 0.091500 0.028880 -0.635056
O38   O     O_R   0.908500 0.000070 0.028880 -0.627322
O39   O     O_R   0.999930 0.908500 0.028880 -0.624088
O40   O     O_R   0.091500 0.000070 0.971120 -0.623980
O41   O     O_R   0.000070 0.908500 0.971120 -0.630585
O42   O     O_R   0.908500 0.999930 0.971120 -0.637955
O43   O     O_R   0.999930 0.091500 0.971120 -0.627201
O44   O     O_R   0.551620 0.908470 0.499890 -0.624961
O45   O     O_R   0.908470 0.448380 0.499890 -0.623602
O46   O     O_R   0.448380 0.091530 0.499890 -0.621617
O47   O     O_R   0.091530 0.551620 0.499890 -0.635389
O48   O     O_R   0.051620 0.591530 0.000110 -0.623415
Zn1   Zn    Zn3+2 0.568970 0.000000 0.500000 0.909007
Zn2   Zn    Zn3+2 0.500000 0.500000 0.461490 0.921417
Zn3   Zn    Zn3+2 0.000000 0.000000 0.038510 0.922205
Zn4   Zn    Zn3+2 0.000000 0.000000 0.961490 0.920014
Zn5   Zn    Zn3+2 1.000000 0.568970 0.500000 0.912492
Zn6   Zn    Zn3+2 0.431030 0.000000 0.500000 0.907240
Zn7   Zn    Zn3+2 1.000000 0.431030 0.500000 0.909583
Zn8   Zn    Zn3+2 0.068970 0.500000 0.000000 0.909547
Zn9   Zn    Zn3+2 0.500000 0.068970 0.000000 0.905182
Zn10  Zn    Zn3+2 0.931030 0.500000 0.000000 0.906549
Zn11  Zn    Zn3+2 0.500000 0.931030 0.000000 0.909840
Zn12  Zn    Zn3+2 0.500000 0.500000 0.538510 0.920792

loop_
_geom_bond_atom_site_label_1
_geom_bond_atom_site_label_2
_ccdc_geom_bond_type
C196  H176  S    
C131  H20   S    
C124  C220  A    
C126  C127  S    
C232  C263  A    
C138  H36   S    
C8    C26   A    
C32   C45   A    
C7    C60   S    
C30   C45   A    
C177  H129  S    
O12   Zn5   S    
C181  H137  S    
C104  C157  A    
C125  H5    S    
C27   H112  S    
C168  C278  A    
C15   C32   A    
C201  H237  S    
C229  C262  A    
C9    C108  S    
C68   C182  S    
C277  O27   A    
O29   Zn12  S    
C65   N15   A    
C116  H280  S    
C47   C65   S    
C288  O16   A    
C21   C59   A    
C246  C272  A    
C204  H191  S    
C22   C60   A    
C57   C178  S    
C83   H229  S    
C106  C107  S    
C175  H132  S    
C99   H215  S    
C143  C144  S    
C108  C109  S    
C74   C92   A    
C132  H32   S    
C182  C183  S    
C90   C217  A    
C145  H62   S    
C215  H241  S    
C159  H94   S    
C76   C94   A    
C18   C58   A    
O4    Zn11  S    
C78   C96   A    
C286  O11   A    
C158  H81   S    
C26   C43   A    
C157  C224  A    
C207  H198  S    
C25   C60   A    
C100  H190  S    
C236  C253  A    
C121  H283  S    
C134  H26   S    
C85   C103  A    
C159  H93   S    
C230  C261  A    
C195  H180  S    
C4    C56   S    
C216  C233  A    
C132  H31   S    
C220  C238  A    
C194  H166  S    
C66   N14   A    
C214  C231  A    
C78   H225  S    
C128  H12   S    
N4    N14   A    
C245  O6    A    
C282  O36   A    
C68   C95   A    
C202  C203  S    
C214  H240  S    
C33   H267  S    
C15   C54   A    
C163  H99   S    
C237  C254  A    
N3    N15   A    
C140  C141  S    
C206  C207  S    
C221  H248  S    
C147  H60   S    
C212  C271  S    
C154  H72   S    
C225  C242  A    
C141  H43   S    
C118  H276  S    
C100  C124  A    
C183  C184  S    
C20   C142  S    
C200  H182  S    
C175  C176  S    
C143  H53   S    
C10   C111  S    
C202  H194  S    
C171  H114  S    
C164  H97   S    
C16   C129  S    
C164  H96   S    
O20   Zn10  S    
C204  H188  S    
C154  H73   S    
C131  H18   S    
C182  H148  S    
C120  H286  S    
C83   C100  A    
C138  H34   S    
C29   C44   A    
C79   C185  S    
C33   C47   A    
C34   C48   A    
C109  H262  S    
C114  H270  S    
C152  H78   S    
C137  H38   S    
C75   C93   A    
C105  C106  S    
N13   N16   A    
C177  H127  S    
C216  H242  S    
C21   C39   A    
C239  C257  A    
C107  H252  S    
O47   Zn5   S    
C158  H80   S    
C196  C197  S    
C285  O41   A    
C219  H246  S    
C139  C140  S    
C210  H204  S    
C23   C41   A    
C140  H45   S    
C219  C237  A    
C179  C226  A    
C69   N1    A    
C130  C131  S    
C133  H29   S    
C79   C96   A    
C167  H103  S    
C286  O9    A    
C149  H70   S    
C156  C158  S    
C77   C95   A    
C62   N7    A    
C117  H277  S    
C123  C125  S    
C223  O34   A    
C82   H228  S    
C199  H184  S    
C210  H205  S    
C234  O48   A    
O46   Zn6   S    
C195  H178  S    
C19   C139  S    
C193  C194  S    
C139  H48   S    
C155  C156  S    
C136  H39   S    
C77   C250  A    
C81   C253  A    
C186  C187  S    
C109  C110  S    
C252  C274  A    
O3    Zn10  S    
C75   C248  A    
C227  C262  A    
C115  H268  S    
C61   N6    A    
C287  O10   A    
C205  H202  S    
C143  H52   S    
C173  H123  S    
C80   C97   A    
C84   C102  A    
C41   H57   S    
C147  C148  S    
O17   Zn5   S    
C14   C31   A    
C88   H135  S    
C86   C104  A    
C8    C105  S    
C2    C162  S    
C200  H181  S    
O21   Zn11  S    
C162  H100  S    
C23   C59   A    
C98   H211  S    
C165  H109  S    
C5    C58   S    
C221  C239  A    
C196  H177  S    
C180  H139  S    
O36   Zn3   S    
O2    Zn9   S    
C256  O3    A    
C52   C286  S    
C204  H189  S    
C40   H46   S    
C224  C241  A    
C53   C287  S    
C1    C269  S    
C170  C171  S    
C262  C279  S    
N1    N6    A    
O18   Zn8   S    
C96   H214  S    
C189  C191  S    
C68   C215  A    
C102  C135  A    
C169  H118  S    
C106  H254  S    
C3    C55   S    
C27   C44   A    
C5    O19   A    
C199  H185  S    
O39   Zn3   S    
O34   Zn7   S    
C18   C136  S    
C19   C37   A    
C8    C52   A    
C228  C263  A    
C14   C55   A    
C112  O12   A    
C66   N12   A    
C43   C69   S    
C284  O38   A    
C87   H146  S    
C64   N16   A    
C235  C252  A    
C240  C264  A    
C146  C205  S    
C70   C87   A    
C118  H274  S    
C192  H171  S    
O22   Zn8   S    
C135  C221  A    
C105  H257  S    
C24   C201  A    
C241  C268  A    
C65   N13   A    
O33   Zn2   S    
C215  C232  A    
C242  C269  A    
C84   C257  A    
C238  C266  A    
C176  H130  S    
C188  H164  S    
C126  H17   S    
C227  C244  A    
C174  H121  S    
O26   Zn9   S    
C72   H218  S    
C1    O1    A    
C13   C190  A    
C71   C88   A    
C62   N5    A    
C245  C274  S    
C87   C278  A    
C117  H279  S    
C12   C119  S    
C92   H101  S    
C147  H61   S    
C209  H208  S    
C46   C213  A    
O15   Zn7   S    
C209  C210  S    
C108  H264  S    
C69   N10   A    
C17   C56   A    
C153  H75   S    
C125  H3    S    
C115  H266  S    
C61   N8    A    
C79   C216  A    
C282  O40   A    
C160  H91   S    
C57   C94   A    
C187  H152  S    
C148  H59   S    
C284  O42   A    
C122  H8    S    
C154  H74   S    
C20   C58   A    
C231  C249  A    
C223  O47   A    
C94   H79   S    
C200  H183  S    
C120  C121  S    
C142  H54   S    
C129  C130  S    
C130  H22   S    
C131  H19   S    
C245  O2    A    
O40   Zn4   S    
C189  H162  S    
C224  H250  S    
C136  C137  S    
C89   H124  S    
C167  H105  S    
C114  C115  S    
C156  H83   S    
C129  H25   S    
C186  H154  S    
C40   C51   A    
C238  C255  A    
C122  H9    S    
C243  C270  A    
C176  H131  S    
C117  C118  S    
N7    N11   A    
C84   H230  S    
C197  H174  S    
C198  H186  S    
C77   H224  S    
C222  H249  S    
C50   C62   S    
C86   H232  S    
C140  H44   S    
O37   Zn3   S    
C22   C149  S    
C36   C49   A    
O5    Zn8   S    
C173  C174  S    
C191  H160  S    
C229  C247  A    
C199  C200  S    
C248  C270  A    
C152  C153  S    
C158  H82   S    
C155  H86   S    
C283  O43   A    
C150  C151  S    
C207  H197  S    
C185  H156  S    
C3    O15   A    
O7    Zn10  S    
C240  C258  A    
C121  H282  S    
C287  O13   A    
C134  H27   S    
O35   Zn2   S    
C235  C265  A    
C23   C152  S    
C14   C122  S    
C82   C99   A    
C72   C244  A    
C194  H167  S    
C267  O8    A    
C166  H107  S    
C10   C52   A    
C213  H239  S    
C127  H14   S    
O11   Zn6   S    
C174  H119  S    
C129  H23   S    
C115  H269  S    
C38   C49   A    
C119  H288  S    
C172  H125  S    
C257  C274  A    
C234  C273  S    
C281  O30   A    
C170  H115  S    
C148  H56   S    
C104  H201  S    
O23   Zn6   S    
O48   Zn8   S    
C146  C222  A    
C48   C64   S    
C81   C98   A    
C184  H143  S    
C54   C288  S    
C124  C198  S    
C151  H66   S    
O9    Zn1   S    
C141  H42   S    
C161  H88   S    
C116  H281  S    
C180  H138  S    
O27   Zn12  S    
C110  H260  S    
O38   Zn3   S    
O25   Zn10  S    
C39   H35   S    
C101  C218  A    
C208  C209  S    
C32   H256  S    
C187  H150  S    
N5    N9    A    
C202  H195  S    
C206  H199  S    
C90   C97   A    
C35   C92   A    
O45   Zn7   S    
C182  H149  S    
C123  H7    S    
C31   C47   A    
C17   C132  S    
C236  C266  A    
C78   C251  A    
C144  H49   S    
C150  H69   S    
C76   C249  A    
C6    C59   S    
C114  H271  S    
C145  C147  S    
C137  H37   S    
C265  C282  S    
C31   H245  S    
C267  C276  S    
C64   N3    A    
C249  C269  A    
C207  H196  S    
C1    O46   A    
N8    N10   A    
C112  C270  S    
O10   Zn5   S    
C73   C246  A    
C28   H212  S    
O13   Zn7   S    
C120  H285  S    
C279  O35   A    
C83   C255  A    
C21   C145  S    
C41   C50   A    
C145  H63   S    
C93   H90   S    
C212  O44   A    
C191  H158  S    
C247  C271  A    
O31   Zn2   S    
C13   C165  S    
C159  C160  S    
N2    N12   A    
C168  H233  S    
C38   H24   S    
C260  C281  S    
C121  H284  S    
C11   C116  S    
C285  O39   A    
C186  H153  S    
C210  H206  S    
C107  H253  S    
C7    O24   A    
C97   H213  S    
C133  C134  S    
C102  H179  S    
C136  H40   S    
C194  H165  S    
C9    C53   A    
C127  C128  S    
C181  H134  S    
C193  H169  S    
C180  C181  S    
C9    C27   A    
C128  H11   S    
C162  C163  S    
C10   C28   A    
C212  O23   A    
C63   N4    A    
C171  H110  S    
C173  H122  S    
C211  C229  A    
C281  O32   A    
C12   C30   A    
C148  H58   S    
C74   H220  S    
C144  H51   S    
C225  C260  A    
C25   C42   A    
C99   C113  A    
C178  C180  S    
C119  C120  S    
C98   C101  A    
C76   H222  S    
C231  C260  A    
C28   C43   A    
O24   Zn11  S    
C71   C243  A    
C223  C272  S    
C149  C150  S    
C192  C193  S    
C185  C186  S    
C183  H147  S    
C222  C240  A    
C217  C235  A    
C277  O31   A    
O44   Zn1   S    
C111  C114  S    
C283  O37   A    
C175  H133  S    
O8    Zn9   S    
C81   H227  S    
C164  H95   S    
C169  H117  S    
C162  H102  S    
C106  H255  S    
C228  C246  A    
C138  H33   S    
C255  C275  A    
C142  C143  S    
C82   C254  A    
C150  H67   S    
C109  H263  S    
C73   H219  S    
C18   C36   A    
C12   C54   A    
C152  H77   S    
C263  C280  S    
C165  H108  S    
C266  C283  S    
C201  C228  A    
C203  C204  S    
C177  H128  S    
C165  C166  S    
C49   C63   S    
C42   H68   S    
O43   Zn4   S    
C25   C155  S    
C244  C271  A    
C169  C170  S    
C26   H1    S    
C163  C164  S    
C51   C61   S    
C19   C56   A    
C250  C272  A    
C110  H259  S    
C101  C192  S    
C118  H275  S    
C220  H247  S    
C192  H172  S    
C144  H50   S    
C205  C206  S    
C36   H2    S    
C183  H145  S    
C90   C188  S    
C268  C284  S    
C237  C268  A    
C264  C285  S    
C184  H144  S    
C133  H30   S    
C167  H104  S    
C127  H15   S    
C126  H16   S    
C80   H226  S    
C37   H13   S    
C149  H71   S    
C203  H193  S    
C116  C117  S    
C239  C265  A    
C217  H243  S    
C111  H273  S    
C35   C211  A    
C218  H244  S    
O1    Zn1   S    
C107  H251  S    
C280  O29   A    
C209  H207  S    
C153  H76   S    
C184  H142  S    
C132  C133  S    
C75   H221  S    
C15   C126  S    
C256  C275  S    
C2    C88   A    
C198  C199  S    
C67   N9    A    
C267  O4    A    
C160  H92   S    
C181  H136  S    
C11   C53   A    
C42   C51   A    
C6    O22   A    
C63   N2    A    
C258  C273  A    
C187  H151  S    
C113  C195  S    
C163  H98   S    
C157  C208  S    
C279  O28   A    
O42   Zn4   S    
C119  H287  S    
C142  H55   S    
C135  C202  S    
C103  H168  S    
C29   H223  S    
C5    O21   A    
O14   Zn1   S    
C190  C227  A    
C189  H161  S    
C259  C276  A    
C151  H64   S    
C73   C91   A    
C253  C275  A    
C168  C225  A    
O28   Zn12  S    
C254  C276  A    
O16   Zn6   S    
C156  H84   S    
C190  H236  S    
C206  H200  S    
C71   H217  S    
C70   H216  S    
C188  C189  S    
C179  H235  S    
C288  O14   A    
C234  O7    A    
C16   C33   A    
C197  H175  S    
C20   C38   A    
C3    O17   A    
C197  H173  S    
C198  H187  S    
C95   H113  S    
C205  H203  S    
C195  C196  S    
C22   C40   A    
C7    O26   A    
C261  C277  S    
C193  H170  S    
C108  H265  S    
C208  H209  S    
C37   C48   A    
C161  H89   S    
C24   C169  S    
C91   H157  S    
C213  C230  A    
C112  O45   A    
C35   C172  S    
O6    Zn11  S    
C233  C264  A    
C191  H159  S    
C176  C177  S    
C208  H210  S    
C34   H278  S    
C155  H85   S    
C80   C252  A    
C166  C167  S    
C85   C258  A    
C185  H155  S    
C232  C250  A    
C2    C179  A    
O41   Zn4   S    
C111  H272  S    
C24   C91   A    
C134  H28   S    
C230  C248  A    
C172  C173  S    
C4    O20   A    
C105  H258  S    
C178  H140  S    
C241  C259  A    
C13   C89   A    
C46   C175  S    
O19   Zn9   S    
C251  C273  A    
C188  H163  S    
C44   C67   S    
C211  H238  S    
C174  H120  S    
C128  H10   S    
C30   H234  S    
C172  H126  S    
C137  C138  S    
C256  O5    A    
C171  H111  S    
C170  H116  S    
C160  C161  S    
O30   Zn12  S    
C122  C123  S    
C16   C55   A    
C280  O33   A    
C70   C242  A    
C74   C247  A    
C46   C93   A    
C139  H47   S    
C85   H231  S    
C178  H141  S    
C151  H65   S    
C6    O25   A    
C141  H41   S    
C161  H87   S    
C226  C261  A    
C166  H106  S    
C110  H261  S    
C86   C259  A    
C125  H4    S    
C226  C243  A    
C218  C236  A    
C233  C251  A    
C4    O18   A    
C39   C50   A    
C67   N11   A    
C57   C214  A    
C11   C29   A    
C17   C34   A    
C45   C66   S    
C159  C278  S    
C72   C89   A    
O32   Zn2   S    
C153  C154  S    
C123  H6    S    
C113  C219  A    
C103  C146  A    
C203  H192  S    
C130  H21   S    
