data_mof_unit_1887.cif
_audit_creation_date              2013-03-05T15:50:15-0500
_audit_creation_method            fapswitch 2.2
_symmetry_space_group_name_H-M    P1
_symmetry_Int_Tables_number       1
_space_group_crystal_system       triclinic
_cell_length_a                    18.357129
_cell_length_b                    26.087769
_cell_length_c                    18.186835
_cell_angle_alpha                 90.426931
_cell_angle_beta                  89.835734
_cell_angle_gamma                 90.006828
_cell_volume                      8709.33474602

loop_
_atom_site_label
_atom_site_type_symbol
_atom_site_description
_atom_site_fract_x
_atom_site_fract_y
_atom_site_fract_z
_atom_type_partial_charge
Zn1   Zn    Zn3+2 0.249990 0.293780 0.913250 1.132413
Zn2   Zn    Zn3+2 0.249990 0.706220 0.086750 1.121776
Zn3   Zn    Zn3+2 0.249990 0.706220 0.913250 1.093920
Zn4   Zn    Zn3+2 0.249990 0.293780 0.086750 1.123740
Zn5   Zn    Zn3+2 0.749990 0.793780 0.413250 1.144041
Zn6   Zn    Zn3+2 0.749990 0.206220 0.586750 1.091715
Zn7   Zn    Zn3+2 0.749990 0.206220 0.413250 1.100911
Zn8   Zn    Zn3+2 0.749990 0.793780 0.586750 1.073705
Zn9   Zn    Zn3+2 0.336760 0.206240 0.000000 1.098670
Zn10  Zn    Zn3+2 0.336760 0.793760 0.000000 1.102699
Zn11  Zn    Zn3+2 0.836760 0.706240 0.500000 1.103649
Zn12  Zn    Zn3+2 0.836760 0.293760 0.500000 1.131973
Zn13  Zn    Zn3+2 0.163250 0.206230 0.000000 1.090577
Zn14  Zn    Zn3+2 0.163250 0.793770 0.000000 1.067924
Zn15  Zn    Zn3+2 0.663250 0.706230 0.500000 1.077660
Zn16  Zn    Zn3+2 0.663250 0.293770 0.500000 1.085478
O1    O     O_3   0.249990 0.250010 0.000000 -0.552164
O2    O     O_3   0.249990 0.749990 0.000000 -0.549128
O3    O     O_3   0.749990 0.750010 0.500000 -0.544038
O4    O     O_3   0.749990 0.249990 0.500000 -0.541541
O5    O     O_R   0.335430 0.280650 0.146160 -0.628474
O6    O     O_R   0.335430 0.719350 0.853840 -0.603966
O7    O     O_R   0.335430 0.719350 0.146160 -0.583273
O8    O     O_R   0.335430 0.280650 0.853840 -0.564255
O9    O     O_R   0.835430 0.780650 0.646160 -0.589211
O10   O     O_R   0.835430 0.219350 0.353840 -0.605733
O11   O     O_R   0.835430 0.219350 0.646160 -0.613721
O12   O     O_R   0.835430 0.780650 0.353840 -0.561551
O13   O     O_R   0.164550 0.280640 0.853840 -0.635077
O14   O     O_R   0.164550 0.719360 0.146160 -0.565055
O15   O     O_R   0.164550 0.719360 0.853840 -0.615701
O16   O     O_R   0.164550 0.280640 0.146160 -0.606781
O17   O     O_R   0.664550 0.780640 0.353840 -0.629353
O18   O     O_R   0.664550 0.219360 0.646160 -0.606075
O19   O     O_R   0.664550 0.219360 0.353840 -0.627011
O20   O     O_R   0.664550 0.780640 0.646160 -0.671679
O21   O     O_R   0.396160 0.219380 0.914560 -0.619151
O22   O     O_R   0.396160 0.780620 0.085440 -0.592065
O23   O     O_R   0.396160 0.780620 0.914560 -0.611773
O24   O     O_R   0.396160 0.219380 0.085440 -0.579877
O25   O     O_R   0.896160 0.719380 0.414560 -0.615622
O26   O     O_R   0.896160 0.280620 0.585440 -0.575546
O27   O     O_R   0.896160 0.280620 0.414560 -0.603922
O28   O     O_R   0.896160 0.719380 0.585440 -0.611623
O29   O     O_R   0.103840 0.219370 0.085450 -0.621817
O30   O     O_R   0.103840 0.780630 0.914550 -0.621040
O31   O     O_R   0.103840 0.780630 0.085450 -0.646564
O32   O     O_R   0.103840 0.219370 0.914550 -0.579378
O33   O     O_R   0.603840 0.719370 0.585450 -0.581387
O34   O     O_R   0.603840 0.280630 0.414550 -0.595514
O35   O     O_R   0.603840 0.280630 0.585450 -0.616673
O36   O     O_R   0.603840 0.719370 0.414550 -0.606238
O37   O     O_R   0.310730 0.133160 0.000000 -0.604520
O38   O     O_R   0.310730 0.866840 0.000000 -0.603492
O39   O     O_R   0.810730 0.633160 0.500000 -0.593596
O40   O     O_R   0.810730 0.366840 0.500000 -0.581748
O41   O     O_R   0.249970 0.366860 0.060720 -0.567967
O42   O     O_R   0.249970 0.633140 0.939280 -0.571782
O43   O     O_R   0.249970 0.633140 0.060720 -0.600969
O44   O     O_R   0.249970 0.366860 0.939280 -0.573632
O45   O     O_R   0.749970 0.866860 0.560720 -0.605448
O46   O     O_R   0.749970 0.133140 0.439280 -0.593371
O47   O     O_R   0.749970 0.133140 0.560720 -0.618791
O48   O     O_R   0.749970 0.866860 0.439280 -0.573084
O49   O     O_R   0.189290 0.133150 0.000000 -0.570807
O50   O     O_R   0.189290 0.866850 0.000000 -0.590938
O51   O     O_R   0.689290 0.633150 0.500000 -0.613899
O52   O     O_R   0.689290 0.366850 0.500000 -0.601698
C1    C     C_R   0.389277 0.248950 0.141615 0.944089
C2    C     C_R   0.393593 0.746438 0.862972 0.886203
C3    C     C_R   0.387518 0.751100 0.142821 0.930077
C4    C     C_R   0.389032 0.249547 0.859545 1.005171
C5    C     C_R   0.890956 0.751560 0.639005 1.013455
C6    C     C_R   0.890569 0.248668 0.360569 0.979614
C7    C     C_R   0.890201 0.250002 0.639568 1.018063
C8    C     C_R   0.890616 0.751027 0.360872 0.999752
C9    C     C_R   0.110897 0.249231 0.859627 0.887279
C10   C     C_R   0.110942 0.750127 0.140245 0.881751
C11   C     C_R   0.109495 0.748681 0.861016 0.889328
C12   C     C_R   0.109311 0.251658 0.138688 0.900252
C13   C     C_R   0.609739 0.750838 0.360362 0.888448
C14   C     C_R   0.610755 0.250393 0.640332 0.898918
C15   C     C_R   0.605605 0.245192 0.365284 0.827600
C16   C     C_R   0.606389 0.754349 0.636425 0.867048
C17   C     C_R   0.249947 0.109202 0.999980 0.976975
C18   C     C_R   0.250130 0.890697 0.998822 1.076231
C19   C     C_R   0.749917 0.609175 0.499273 0.883682
C20   C     C_R   0.750134 0.391015 0.498824 0.936286
C21   C     C_R   0.247021 0.391262 0.000253 1.093365
C22   C     C_R   0.248172 0.608654 0.999394 0.974637
C23   C     C_R   0.750660 0.891418 0.499858 1.067783
C24   C     C_R   0.747898 0.108711 0.499442 1.050098
C25   C     C_3   0.176866 0.469899 0.047204 0.662607
C26   C     C_3   0.222753 0.529043 0.918598 0.573234
C27   C     C_3   0.185547 0.530848 0.056140 0.533959
C28   C     C_3   0.234708 0.468857 0.917759 0.547204
C29   C     C_3   0.818595 0.971324 0.542019 0.633478
C30   C     C_3   0.670514 0.030099 0.525773 0.628083
C31   C     C_3   0.807759 0.030858 0.554350 0.518249
C32   C     C_3   0.677848 0.970102 0.539470 0.553937
C33   C     C_3   0.319383 0.470452 0.034006 0.462938
C34   C     C_3   0.324833 0.529894 0.019641 0.466924
C35   C     C_3   0.751709 0.969592 0.415129 0.513568
C36   C     C_3   0.763427 0.029371 0.416325 0.499574
C37   C     C_3   0.244988 0.448951 0.000418 -0.525565
C38   C     C_3   0.246070 0.550930 0.998282 -0.465953
C39   C     C_3   0.749888 0.949220 0.498506 -0.508703
C40   C     C_3   0.747304 0.051072 0.498018 -0.469418
C41   C     C_R   0.011286 0.330877 0.852468 -0.227404
C42   C     C_R   0.985545 0.688845 0.123015 -0.234480
C43   C     C_R   0.011482 0.665958 0.845300 -0.245135
C44   C     C_R   0.118105 0.184012 0.256532 -0.176335
C45   C     C_R   0.538551 0.846892 0.323910 -0.180452
C46   C     C_R   0.476643 0.202705 0.612751 -0.201841
C47   C     C_R   0.570761 0.147675 0.281673 -0.188796
C48   C     C_R   0.602667 0.831512 0.761165 -0.175693
C49   C     C_R   0.965225 0.372702 0.850111 -0.142538
C50   C     C_R   0.925506 0.657581 0.112788 -0.156049
C51   C     C_R   0.962334 0.625844 0.842247 -0.170097
C52   C     C_R   0.117917 0.142873 0.304059 -0.267227
C53   C     C_R   0.503147 0.892706 0.309486 -0.091412
C54   C     C_R   0.411103 0.179642 0.595416 -0.166243
C55   C     C_R   0.556990 0.104774 0.238318 -0.120572
C56   C     C_R   0.620912 0.852204 0.829338 -0.197404
C57   C     C_R   0.445624 0.894358 0.260332 0.363609
C58   C     C_R   0.354043 0.180326 0.645199 0.386579
C59   C     C_R   0.497334 0.103673 0.191763 0.333873
C60   C     C_R   0.595159 0.829847 0.893598 0.317331
C61   C     C_R   0.911897 0.375782 0.796745 0.374524
C62   C     C_R   0.871198 0.655225 0.165720 0.366123
C63   C     C_R   0.904200 0.627222 0.793980 0.351270
C64   C     C_R   0.055638 0.131596 0.343699 0.480077
C65   C     C_R   0.422577 0.849176 0.223896 0.373654
C66   C     C_R   0.362381 0.204558 0.714639 0.349152
C67   C     C_R   0.451121 0.146890 0.187208 0.392745
C68   C     C_R   0.544838 0.788810 0.889269 0.420392
C69   C     C_R   0.903445 0.335663 0.744407 0.374612
C70   C     C_R   0.876338 0.685281 0.230805 0.355674
C71   C     C_R   0.894886 0.669695 0.746730 0.363222
C72   C     C_R   0.995920 0.165057 0.342667 0.369777
C73   C     C_R   0.459011 0.801789 0.237847 -0.001631
C74   C     C_R   0.431144 0.227910 0.734056 -0.023750
C75   C     C_R   0.473359 0.194351 0.219919 -0.005759
C76   C     C_R   0.517917 0.773200 0.819231 -0.025231
C77   C     C_R   0.951783 0.292046 0.745687 -0.014194
C78   C     C_R   0.938029 0.718750 0.241358 -0.013988
C79   C     C_R   0.948727 0.710047 0.745790 -0.009773
C80   C     C_R   0.997350 0.210322 0.298239 -0.118781
C81   C     C_R   0.006417 0.290451 0.800234 -0.017151
C82   C     C_R   0.993228 0.719476 0.187062 -0.002470
C83   C     C_R   0.005852 0.708414 0.797593 -0.017725
C84   C     C_R   0.056404 0.216355 0.249854 0.001238
C85   C     C_R   0.517854 0.800725 0.288509 -0.033497
C86   C     C_R   0.487749 0.227539 0.681383 0.001673
C87   C     C_R   0.530183 0.193164 0.273019 0.011010
C88   C     C_R   0.555686 0.788827 0.755583 -0.020904
C89   C     C_R   0.433385 0.754342 0.209475 -0.036430
C90   C     C_R   0.445304 0.251247 0.804031 -0.058412
C91   C     C_R   0.440059 0.243014 0.204159 -0.053961
C92   C     C_R   0.456312 0.740901 0.810994 -0.015348
C93   C     C_R   0.948642 0.250771 0.693472 -0.059122
C94   C     C_R   0.946080 0.751946 0.303633 -0.051735
C95   C     C_R   0.946023 0.752493 0.696450 -0.063607
C96   C     C_R   0.942711 0.249226 0.300336 -0.058686
C97   C     C_R   0.453991 0.708340 0.245635 -0.198687
C98   C     C_R   0.513520 0.275129 0.821416 -0.162066
C99   C     C_R   0.450301 0.284114 0.254864 -0.141182
C100  C     C_R   0.446812 0.713638 0.743930 -0.199989
C101  C     C_R   0.002368 0.210948 0.691907 -0.172294
C102  C     C_R   0.008489 0.784520 0.312284 -0.174422
C103  C     C_R   0.996293 0.794838 0.702073 -0.174808
C104  C     C_R   0.940556 0.289545 0.247036 -0.135899
C105  C     C_R   0.051125 0.206849 0.752046 -0.051695
C106  C     C_R   0.067962 0.778217 0.263494 -0.039672
C107  C     C_R   0.053927 0.791493 0.753811 -0.056809
C108  C     C_R   0.997225 0.291698 0.193312 -0.064555
C109  C     C_R   0.522844 0.706566 0.278004 -0.063002
C110  C     C_R   0.569457 0.274517 0.767139 -0.059249
C111  C     C_R   0.483291 0.273064 0.321866 -0.160779
C112  C     C_R   0.481835 0.731017 0.680218 -0.068248
C113  C     C_R   0.054657 0.248255 0.803443 -0.021384
C114  C     C_R   0.056558 0.749366 0.198083 -0.008114
C115  C     C_R   0.056198 0.749219 0.802168 -0.016103
C116  C     C_R   0.053354 0.253911 0.195039 -0.012393
C117  C     C_R   0.552402 0.753072 0.304747 -0.016578
C118  C     C_R   0.555193 0.251080 0.697592 -0.017068
C119  C     C_R   0.538992 0.235906 0.320817 -0.091027
C120  C     C_R   0.544435 0.761919 0.688330 -0.026169
C121  C     C_R   0.407860 0.665305 0.256279 0.314702
C122  C     C_R   0.528223 0.300333 0.890833 0.236165
C123  C     C_R   0.429244 0.335594 0.243534 0.322710
C124  C     C_R   0.408900 0.666834 0.739256 0.330522
C125  C     C_R   0.011167 0.175777 0.631354 0.218559
C126  C     C_R   0.014004 0.823526 0.367634 0.236049
C127  C     C_R   0.992254 0.840710 0.658543 0.231647
C128  C     C_R   0.883150 0.327180 0.243830 0.214710
C129  C     C_R   0.438522 0.617562 0.273431 0.345122
C130  C     C_R   0.598949 0.316686 0.908117 0.341895
C131  C     C_R   0.416915 0.367802 0.304933 0.250438
C132  C     C_R   0.387905 0.646992 0.670493 0.302047
C133  C     C_R   0.056768 0.132869 0.637907 0.376359
C134  C     C_R   0.080406 0.848251 0.381802 0.349548
C135  C     C_R   0.039648 0.882105 0.671760 0.355078
C136  C     C_R   0.887527 0.368159 0.194421 0.330033
C137  C     C_R   0.095362 0.124465 0.702148 0.247779
C138  C     C_R   0.141942 0.836462 0.340161 0.172372
C139  C     C_R   0.098082 0.876715 0.719178 0.221406
C140  C     C_R   0.943771 0.370622 0.143079 0.254171
C141  C     C_R   0.514008 0.613058 0.283188 0.211842
C142  C     C_R   0.653547 0.315126 0.855140 0.236237
C143  C     C_R   0.426719 0.348573 0.375995 0.254134
C144  C     C_R   0.406426 0.673349 0.606074 0.189816
C145  C     C_R   0.096818 0.162336 0.757431 0.280796
C146  C     C_R   0.136717 0.801507 0.280956 0.301420
C147  C     C_R   0.109315 0.830176 0.755240 0.316158
C148  C     C_R   0.996541 0.331507 0.139318 0.332226
C149  C     C_R   0.557022 0.658098 0.287205 0.359194
C150  C     C_R   0.637860 0.298435 0.783302 0.315916
C151  C     C_R   0.461430 0.301392 0.385221 0.391643
C152  C     C_R   0.454355 0.715814 0.610567 0.382569
H1    H     H_    0.050869 0.330919 0.896396 0.165600
H2    H     H_    0.026337 0.688162 0.079940 0.128439
H3    H     H_    0.054425 0.662781 0.885603 0.159692
H4    H     H_    0.167092 0.189757 0.224411 0.171046
H5    H     H_    0.580267 0.848339 0.365519 0.208964
H6    H     H_    0.518871 0.200113 0.571301 0.137851
H7    H     H_    0.611008 0.143217 0.324020 0.234610
H8    H     H_    0.623542 0.850636 0.712984 0.199996
H9    H     H_    0.971052 0.403035 0.890695 0.230948
H10   H     H_    0.921480 0.634668 0.063036 0.209126
H11   H     H_    0.969113 0.593588 0.878780 0.221747
H12   H     H_    0.165151 0.118154 0.306948 0.202258
H13   H     H_    0.518880 0.927101 0.339047 0.262611
H14   H     H_    0.404876 0.160779 0.542538 0.203204
H15   H     H_    0.590190 0.070812 0.244396 0.259539
H16   H     H_    0.657253 0.884862 0.832118 0.218243
H17   H     H_    0.144170 0.045737 0.232251 0.196587
H18   H     H_    0.153342 0.953779 0.235974 0.202898
H19   H     H_    0.502964 0.540204 0.546076 0.230574
H20   H     H_    0.499616 0.466672 0.460990 0.238687
C153  C     C_R   0.300447 0.053334 0.869799 0.338896
C154  C     C_R   0.299045 0.945657 0.868816 0.299371
C155  C     C_R   0.873876 0.547176 0.437322 0.408929
C156  C     C_R   0.886439 0.455994 0.516779 0.338240
C157  C     C_R   0.323858 0.026139 0.806917 0.393998
C158  C     C_R   0.321836 0.972642 0.805756 0.316500
C159  C     C_R   0.942452 0.522567 0.441480 0.340339
C160  C     C_R   0.949684 0.478254 0.485146 0.226719
C161  C     C_R   0.274914 0.972505 0.933986 -0.086706
C162  C     C_R   0.275185 0.026904 0.934376 -0.095202
C163  C     C_R   0.817145 0.475183 0.496931 -0.081615
C164  C     C_R   0.813702 0.526317 0.476081 -0.093964
C165  C     C_R   0.250773 0.946311 0.998620 -0.073807
C166  C     C_R   0.249828 0.053475 0.998962 -0.049891
C167  C     C_R   0.750483 0.446958 0.495181 -0.054463
C168  C     C_R   0.749639 0.553506 0.496733 -0.065332
C169  C     C_R   0.226155 0.972714 0.063038 -0.035120
C170  C     C_R   0.224016 0.027131 0.062643 -0.092941
C171  C     C_R   0.683802 0.474523 0.489148 -0.017434
C172  C     C_R   0.685114 0.525496 0.512870 -0.146300
C173  C     C_R   0.203754 0.946165 0.128676 0.439595
C174  C     C_R   0.195768 0.053188 0.126900 0.417446
C175  C     C_R   0.616752 0.455033 0.461622 0.519418
C176  C     C_R   0.620036 0.545944 0.544493 0.484455
C177  C     C_R   0.172667 0.973385 0.187353 -0.216129
C178  C     C_R   0.167685 0.025827 0.185587 -0.123551
C179  C     C_R   0.551632 0.480605 0.480341 -0.247711
C180  C     C_R   0.553403 0.523638 0.526003 -0.098631
Cl1   Cl    Cl    0.163565 0.439566 0.135624 -0.318024
Cl2   Cl    Cl    0.267341 0.557317 0.839152 -0.350585
Cl3   Cl    Cl    0.208426 0.548515 0.150343 -0.329457
Cl4   Cl    Cl    0.311644 0.449603 0.859925 -0.364587
Cl5   Cl    Cl    0.902958 0.956960 0.495219 -0.263896
Cl6   Cl    Cl    0.598028 0.046528 0.462890 -0.512104
Cl7   Cl    Cl    0.893352 0.065715 0.548205 -0.392215
Cl8   Cl    Cl    0.595276 0.935706 0.514043 -0.549614
Cl9   Cl    Cl    0.314206 0.673989 0.277235 -0.371684
Cl10  Cl    Cl    0.461448 0.316994 0.957759 -0.460792
Cl11  Cl    Cl    0.438526 0.362823 0.155589 -0.324231
Cl12  Cl    Cl    0.408804 0.626373 0.816028 -0.346095
Cl13  Cl    Cl    0.975998 0.186786 0.542190 -0.496496
Cl14  Cl    Cl    0.937500 0.850398 0.411223 -0.414492
Cl15  Cl    Cl    0.931208 0.850340 0.585720 -0.468258
Cl16  Cl    Cl    0.800566 0.324430 0.294986 -0.520748
Cl17  Cl    Cl    0.069416 0.089605 0.564009 -0.211260
Cl18  Cl    Cl    0.086704 0.895433 0.452026 -0.262942
Cl19  Cl    Cl    0.027868 0.941657 0.627226 -0.265145
Cl20  Cl    Cl    0.820609 0.417203 0.195588 -0.300820
Cl21  Cl    Cl    0.381532 0.563882 0.286718 -0.216764
Cl22  Cl    Cl    0.619496 0.341284 0.996826 -0.287469
Cl23  Cl    Cl    0.389735 0.431856 0.293959 -0.256657
Cl24  Cl    Cl    0.339467 0.588638 0.665051 -0.317303
O53   O     O_3   0.140791 0.155297 0.817912 -0.719763
H21   H     H_    0.182174 0.132768 0.805124 0.401704
O54   O     O_3   0.198213 0.788838 0.240666 -0.714985
H22   H     H_    0.242998 0.796885 0.268522 0.403986
O55   O     O_3   0.174515 0.821589 0.791056 -0.733943
H23   H     H_    0.213438 0.842650 0.768718 0.377639
O56   O     O_3   0.049001 0.332565 0.084584 -0.745446
H24   H     H_    0.031149 0.351862 0.041661 0.373090
O57   O     O_3   0.631672 0.656468 0.297651 -0.728970
H25   H     H_    0.648803 0.620686 0.300793 0.390640
O58   O     O_3   0.689173 0.305470 0.728737 -0.735711
H26   H     H_    0.716612 0.337271 0.739479 0.386015
O59   O     O_3   0.468106 0.282445 0.455631 -0.667193
H27   H     H_    0.478240 0.245171 0.452381 0.316059
O60   O     O_3   0.472518 0.744968 0.549869 -0.723636
H28   H     H_    0.447340 0.732016 0.505570 0.385012
O61   O     O_3   0.299234 0.106225 0.866808 -0.748849
H29   H     H_    0.335397 0.118804 0.830744 0.397341
O62   O     O_3   0.298899 0.892869 0.865575 -0.774773
H30   H     H_    0.345460 0.881479 0.842941 0.338341
O63   O     O_3   0.862085 0.587556 0.389825 -0.699800
H31   H     H_    0.908213 0.597672 0.365681 0.396593
O64   O     O_3   0.891119 0.421996 0.574516 -0.714428
H32   H     H_    0.939502 0.425164 0.598062 0.358691
O65   O     O_3   0.344726 0.053780 0.745517 -0.702053
H33   H     H_    0.362233 0.030670 0.705893 0.419355
O66   O     O_3   0.340845 0.947556 0.741149 -0.714306
H34   H     H_    0.316101 0.913904 0.738456 0.382283
O67   O     O_3   0.001032 0.543392 0.404102 -0.701787
H35   H     H_    0.044477 0.521325 0.409684 0.424414
O68   O     O_3   0.017886 0.456816 0.493976 -0.712504
H36   H     H_    0.012205 0.419846 0.504714 0.364586
O69   O     O_3   0.111820 0.454390 0.011653 -0.660914
H37   H     H_    0.089742 0.481687 0.982093 0.430033
O70   O     O_3   0.148534 0.541206 0.908329 -0.748541
H38   H     H_    0.134416 0.533649 0.856743 0.375318
O71   O     O_3   0.117531 0.554506 0.043505 -0.693383
H39   H     H_    0.120769 0.591227 0.057573 0.344652
O72   O     O_3   0.173367 0.444641 0.886171 -0.721482
H40   H     H_    0.173532 0.451880 0.832657 0.373775
O73   O     O_3   0.824123 0.946920 0.610789 -0.625549
H41   H     H_    0.867870 0.960740 0.636072 0.404004
O74   O     O_3   0.651306 0.055170 0.592097 -0.660189
H42   H     H_    0.602677 0.042257 0.607306 0.391184
O75   O     O_3   0.783091 0.038005 0.627618 -0.631060
H43   H     H_    0.797734 0.072246 0.646285 0.391567
O76   O     O_3   0.684811 0.962906 0.616130 -0.633916
H44   H     H_    0.673513 0.926792 0.628195 0.371545
O77   O     O_3   0.213511 0.893927 0.136231 -0.767858
H45   H     H_    0.195283 0.882566 0.184780 0.371475
O78   O     O_3   0.193771 0.105433 0.135106 -0.778794
H46   H     H_    0.244946 0.116275 0.141993 0.318742
O79   O     O_3   0.616637 0.415882 0.410017 -0.675399
H47   H     H_    0.565724 0.408316 0.395437 0.356279
O80   O     O_3   0.619760 0.583888 0.597734 -0.706360
H48   H     H_    0.669278 0.585924 0.619240 0.334857
Cl25  Cl    Cl    0.325632 0.456846 0.130400 -0.260508
Cl26  Cl    Cl    0.390664 0.544486 0.949539 -0.296318
Cl27  Cl    Cl    0.366927 0.563952 0.095585 -0.349255
Cl28  Cl    Cl    0.398768 0.436208 0.001191 -0.265524
Cl29  Cl    Cl    0.817895 0.939138 0.354547 -0.297857
Cl30  Cl    Cl    0.712248 0.058526 0.342427 -0.447363
Cl31  Cl    Cl    0.853957 0.047128 0.387765 -0.345776
Cl32  Cl    Cl    0.669605 0.950997 0.367239 -0.444590
Cl33  Cl    Cl    0.143093 0.065859 0.712602 -0.350772
Cl34  Cl    Cl    0.224331 0.869554 0.358727 -0.459399
Cl35  Cl    Cl    0.156553 0.929434 0.735403 -0.440634
Cl36  Cl    Cl    0.948504 0.424211 0.083881 -0.387789
Cl37  Cl    Cl    0.551760 0.551635 0.298478 -0.424592
Cl38  Cl    Cl    0.743108 0.333802 0.879158 -0.438697
Cl39  Cl    Cl    0.398736 0.383923 0.454076 -0.426111
Cl40  Cl    Cl    0.374694 0.649902 0.520411 -0.450192
Cl41  Cl    Cl    0.398753 0.953040 0.252223 -0.478776
Cl42  Cl    Cl    0.273520 0.148351 0.618652 -0.504171
Cl43  Cl    Cl    0.481500 0.046749 0.141427 -0.503657
Cl44  Cl    Cl    0.625957 0.855446 0.977916 -0.520477
Cl45  Cl    Cl    0.855985 0.430809 0.798973 -0.440765
Cl46  Cl    Cl    0.796752 0.614456 0.146721 -0.442296
Cl47  Cl    Cl    0.844455 0.574238 0.794891 -0.478787
Cl48  Cl    Cl    0.050394 0.072180 0.388145 -0.303753
O81   O     O_3   0.360202 0.849575 0.181710 -0.737700
H49   H     H_    0.351924 0.884488 0.162715 0.393349
O82   O     O_3   0.304725 0.205160 0.763663 -0.780765
H50   H     H_    0.258361 0.198469 0.737884 0.375572
O83   O     O_3   0.381188 0.142042 0.160153 -0.789109
H51   H     H_    0.371222 0.106069 0.146098 0.364787
O84   O     O_3   0.525910 0.760404 0.950439 -0.719100
H52   H     H_    0.551667 0.773350 0.994436 0.382699
O85   O     O_3   0.848875 0.338402 0.692421 -0.762712
H53   H     H_    0.827484 0.373092 0.690906 0.385196
O86   O     O_3   0.822150 0.682799 0.283727 -0.760739
H54   H     H_    0.787874 0.654543 0.273232 0.398816
O87   O     O_3   0.833062 0.673375 0.703656 -0.793523
H55   H     H_    0.797942 0.645861 0.714993 0.370229
O88   O     O_3   0.934653 0.149634 0.379235 -0.644892
H56   H     H_    0.899324 0.141283 0.339803 0.375136

loop_
_geom_bond_atom_site_label_1
_geom_bond_atom_site_label_2
_geom_bond_distance
_ccdc_geom_bond_type
C161  C165  1.433198 A    
C32   O76   1.414324 S    
C172  C176  1.426233 A    
C42   C50   1.383193 A    
O75   H43   0.990635 S    
O57   H25   0.987179 S    
C18   C165  1.450916 S    
C175  C179  1.408708 A    
C62   Cl46  1.764987 S    
C90   C98   1.433680 A    
O26   C7    1.276774 A    
C131  Cl23  1.756966 S    
C48   H8    1.080791 S    
C169  C173  1.443357 A    
C143  Cl39  1.762750 S    
C171  C175  1.422559 A    
O30   C11   1.280905 A    
C127  C135  1.406427 A    
C135  Cl19  1.770945 S    
C154  O62   1.377949 S    
C175  O79   1.381949 S    
C125  C133  1.403838 A    
O80   H48   0.991887 S    
Zn12  O26   1.933596 S    
C78   C82   1.413070 A    
C103  C107  1.421023 A    
C136  C140  1.391905 A    
C9    C113  1.454746 S    
C128  C136  1.403800 A    
C51   H11   1.083474 S    
C138  C146  1.409296 A    
C157  C158  1.396119 A    
C44   H4    1.081974 S    
C74   C90   1.431117 A    
O11   C7    1.290442 A    
O34   C15   1.282984 A    
C3    C89   1.479841 S    
C30   O74   1.411716 S    
C47   C55   1.387853 A    
O68   H36   0.990892 S    
C23   C39   1.508378 S    
O84   H52   0.987911 S    
Zn14  O30   1.929693 S    
Zn1   O44   1.960964 S    
C44   C52   1.383042 A    
Zn2   O43   1.960964 S    
C101  C125  1.436891 A    
C144  C152  1.416638 A    
C128  Cl16  1.778174 S    
O73   H41   0.992948 S    
C174  O78   1.370484 S    
Zn5   O48   1.960964 S    
Zn6   O47   1.960964 S    
C105  C145  1.436681 A    
Zn7   O46   1.967811 S    
C47   H7    1.075702 S    
O16   C12   1.271789 A    
C45   H5    1.078599 S    
O58   H26   0.989042 S    
Zn16  O4    1.959664 S    
Zn12  O4    1.959741 S    
Zn1   O13   1.936232 S    
C176  O80   1.379553 S    
C26   C28   1.585345 S    
C139  Cl35  1.768087 S    
Zn4   O16   1.934063 S    
C61   Cl45  1.764962 S    
C73   C89   1.418236 A    
C19   C168  1.452684 S    
C54   H14   1.083347 S    
C14   C118  1.455574 S    
O85   H53   0.987150 S    
C153  C157  1.407507 A    
C104  C128  1.441984 A    
O88   H56   0.991298 S    
C62   C70   1.418304 A    
C133  Cl17  1.763447 S    
C41   H1    1.081481 S    
C107  C115  1.416365 A    
C102  C106  1.413730 A    
C121  C129  1.404425 A    
O28   C5    1.284608 A    
C108  C116  1.426643 A    
C136  Cl20  1.773785 S    
C125  Cl13  1.772538 S    
C122  Cl10  1.776699 S    
C111  C151  1.421120 A    
C154  C161  1.440928 A    
C109  C149  1.422798 A    
C42   C82   1.415018 A    
O82   H50   0.987778 S    
C99   C123  1.414305 A    
C100  C124  1.407487 A    
Zn10  O22   1.933596 S    
C141  C149  1.417145 A    
C60   C68   1.415819 A    
C5    C95   1.455873 S    
C87   C119  1.418264 A    
O25   C8    1.287612 A    
Zn13  O29   1.924695 S    
C77   C93   1.431641 A    
Zn10  O2    1.959741 S    
C91   C99   1.421813 A    
H19   C180  1.083127 S    
O29   C12   1.282747 A    
Zn15  O33   1.924695 S    
Zn16  O34   1.929693 S    
C156  O64   1.382415 S    
C48   C88   1.411655 A    
C160  O68   1.381569 S    
O74   H42   0.993378 S    
C56   H16   1.082988 S    
O55   H23   0.989451 S    
C61   C69   1.418255 A    
C58   C66   1.416745 A    
O67   H35   0.989555 S    
C33   Cl25  1.795253 S    
C35   C39   1.610789 S    
O48   C23   1.270428 A    
C46   C86   1.417273 A    
C126  C134  1.402652 A    
C6    C96   1.452807 S    
C68   O84   1.384745 S    
C54   C58   1.382579 A    
C97   C109  1.396760 A    
C41   C81   1.417112 A    
Zn16  O35   1.928769 S    
C106  C114  1.419005 A    
C30   C40   1.594094 S    
C31   C40   1.604356 S    
C86   C118  1.412834 A    
C161  C162  1.419116 A    
Zn7   O10   1.934017 S    
O33   C16   1.296924 A    
O9    C5    1.276632 A    
O40   C20   1.279089 A    
C147  O55   1.383378 S    
C43   C51   1.382519 A    
C169  C170  1.420238 A    
C30   Cl6   1.810619 S    
C75   C87   1.424044 A    
C24   C40   1.503752 S    
C153  O61   1.381469 S    
Zn5   O17   1.936232 S    
C51   C63   1.384409 A    
C138  Cl34  1.773401 S    
C49   C61   1.383261 A    
C93   C101  1.432644 A    
C124  C132  1.404818 A    
C25   C27   1.605056 S    
C148  O56   1.383460 S    
C170  C174  1.442727 A    
C140  Cl36  1.772837 S    
C20   C167  1.461420 S    
C59   Cl43  1.763243 S    
Zn8   O3    1.940659 S    
C80   C96   1.427215 A    
C34   Cl26  1.796971 S    
C89   C97   1.424442 A    
O38   C18   1.275079 A    
C70   O86   1.384014 S    
O5    C1    1.290935 A    
C10   C114  1.448380 S    
C110  C118  1.425682 A    
O32   C9    1.277582 A    
C76   C88   1.410393 A    
C79   C83   1.412564 A    
C53   C57   1.386394 A    
O53   H21   0.986763 S    
C27   C38   1.617840 S    
C35   Cl29  1.816826 S    
C158  O66   1.384522 S    
C55   C59   1.386331 A    
Zn15  O51   1.965563 S    
C25   Cl1   1.813403 S    
Zn11  O28   1.929440 S    
C74   C86   1.411274 A    
C67   O83   1.381603 S    
C129  Cl21  1.765557 S    
Zn7   O4    1.940660 S    
C155  O63   1.384725 S    
C96   C104  1.436323 A    
C76   C92   1.417826 A    
O8    C4    1.280398 A    
C69   O85   1.381651 S    
C80   C84   1.403876 A    
O50   C18   1.278571 A    
O37   C17   1.278869 A    
C179  C180  1.391850 A    
C83   C115  1.411802 A    
C143  C151  1.397505 A    
Zn1   O1    1.954446 S    
Zn13  O1    1.959443 S    
C7    C93   1.455373 S    
C79   C95   1.431408 A    
C73   C85   1.422183 A    
C70   C78   1.442284 A    
C168  C172  1.422693 A    
C49   H9    1.083584 S    
C1    C91   1.481764 S    
C11   C115  1.452277 S    
C2    C92   1.493928 S    
C12   C116  1.449841 S    
O39   C19   1.279738 A    
O36   C13   1.291636 A    
C130  C142  1.388657 A    
C63   C71   1.417915 A    
C134  Cl18  1.771147 S    
C137  C145  1.404642 A    
C165  C169  1.426964 A    
C66   O82   1.381942 S    
O13   C9    1.285697 A    
Zn1   O8    1.931230 S    
C26   O70   1.412201 S    
C21   C37   1.505435 S    
Zn2   O7    1.936189 S    
C126  Cl14  1.754373 S    
C101  C105  1.419921 A    
Zn3   O6    1.934017 S    
O18   C14   1.282165 A    
O31   C10   1.286827 A    
C150  O58   1.379526 S    
O6    C2    1.290758 A    
C104  C108  1.426530 A    
C162  C166  1.435865 A    
C99   C111  1.394354 A    
C28   C37   1.605759 S    
C33   C34   1.577599 S    
C156  C163  1.415777 A    
C149  O57   1.384703 S    
O78   H46   0.989081 S    
C41   C49   1.381458 A    
C163  C164  1.391024 A    
C82   C114  1.413681 A    
C63   Cl47  1.764525 S    
C92   C100  1.418505 A    
Zn15  O3    1.959443 S    
C78   C94   1.428596 A    
Zn11  O3    1.959962 S    
C17   C166  1.453775 S    
C154  C158  1.412495 A    
O41   C21   1.276060 A    
C27   O71   1.413015 S    
C32   Cl8   1.820473 S    
C71   O87   1.384618 S    
C69   C77   1.443424 A    
C59   C67   1.414103 A    
C142  Cl38  1.769729 S    
C111  C119  1.409044 A    
C26   Cl2   1.819526 S    
C109  C117  1.412610 A    
Zn8   O20   1.934063 S    
C112  C120  1.411117 A    
C29   O73   1.411557 S    
C146  O54   1.382851 S    
C97   C121  1.420249 A    
C44   C84   1.418492 A    
C98   C110  1.422343 A    
C95   C103  1.442575 A    
C56   C60   1.391563 A    
C173  O77   1.382430 S    
C105  C113  1.424795 A    
O64   H32   0.990306 S    
C81   C113  1.414516 A    
Zn8   O9    1.939101 S    
C52   H12   1.082279 S    
C88   C120  1.421270 A    
O60   H28   0.987386 S    
O7    C3    1.266597 A    
C22   C38   1.506374 S    
O54   H22   0.988621 S    
C102  C126  1.429792 A    
O19   C15   1.290388 A    
O44   C21   1.275531 A    
C124  Cl12  1.756599 S    
Zn9   O24   1.929440 S    
Zn6   O18   1.931273 S    
Zn10  O23   1.924446 S    
C106  C146  1.436065 A    
C107  C147  1.432624 A    
O56   H24   0.988703 S    
C173  C177  1.397872 A    
C50   C62   1.385545 A    
C46   H6    1.081506 S    
C163  C167  1.428421 A    
O76   H44   0.990738 S    
C94   C102  1.434657 A    
C139  C147  1.399776 A    
C132  Cl24  1.765172 S    
C43   H3    1.081573 S    
Zn15  O36   1.933849 S    
O15   C11   1.273384 A    
O42   C22   1.270660 A    
C123  Cl11  1.762715 S    
C157  O65   1.386774 S    
C55   H15   1.081964 S    
Zn4   O1    1.940659 S    
C103  C127  1.441792 A    
O17   C13   1.277268 A    
C53   H13   1.082224 S    
C16   C120  1.488166 S    
Zn9   O37   1.965411 S    
O12   C8    1.281517 A    
C36   C40   1.612609 S    
Zn11  O39   1.965411 S    
C122  C130  1.402383 A    
O87   H55   0.987269 S    
C31   Cl7   1.818883 S    
C48   C56   1.390375 A    
C110  C150  1.432362 A    
C153  C162  1.441754 A    
C65   O81   1.380219 S    
C27   Cl3   1.821096 S    
Zn5   O3    1.954446 S    
C64   C72   1.401681 A    
Zn6   O4    1.954444 S    
C65   C73   1.430309 A    
Zn2   O14   1.931273 S    
O70   H38   0.992380 S    
C68   C76   1.424202 A    
C100  C112  1.401785 A    
O63   H31   0.989472 S    
C130  Cl22  1.773392 S    
O69   H37   0.983572 S    
C30   C32   1.592479 S    
O66   H34   0.989366 S    
C58   Cl42  1.764000 S    
Zn3   O42   1.967811 S    
C156  C160  1.420245 A    
C28   O72   1.412523 S    
O59   H27   0.991361 S    
O21   C4    1.284549 A    
C35   C36   1.574226 S    
H17   C178  1.080625 S    
C77   C81   1.413527 A    
O62   H30   0.992231 S    
C36   Cl30  1.813857 S    
Zn2   O2    1.954444 S    
O71   H39   0.991538 S    
Zn14  O2    1.959664 S    
C8    C94   1.454358 S    
O72   H40   0.992781 S    
C72   C80   1.435994 A    
Zn13  O49   1.965563 S    
O61   H29   0.989569 S    
C71   C79   1.444031 A    
C132  C144  1.403806 A    
C144  Cl40  1.769617 S    
C123  C131  1.410223 A    
C34   Cl27  1.811598 S    
Zn12  O27   1.924446 S    
C66   C74   1.445118 A    
C166  C170  1.430655 A    
C4    C90   1.443276 S    
Zn3   O2    1.940660 S    
C127  Cl15  1.756865 S    
C25   C37   1.604244 S    
C35   Cl32  1.807374 S    
C57   Cl41  1.763543 S    
O46   C24   1.270799 A    
Zn4   O41   1.967812 S    
C108  C148  1.434660 A    
Zn11  O25   1.928520 S    
Zn16  O52   1.965453 S    
C29   C39   1.596337 S    
C84   C116  1.404195 A    
C177  C178  1.371775 A    
C137  Cl33  1.773993 S    
Zn8   O45   1.967812 S    
C164  C168  1.421600 A    
C145  O53   1.379622 S    
O27   C6    1.287581 A    
C131  C143  1.401899 A    
C140  C148  1.408240 A    
H20   C179  1.080576 S    
C15   C119  1.486830 S    
C151  O59   1.381827 S    
C13   C117  1.463311 S    
C29   C31   1.580078 S    
C33   C37   1.597601 S    
C167  C171  1.424664 A    
O24   C1    1.281539 A    
C31   O75   1.417137 S    
C135  C139  1.386099 A    
C98   C122  1.445189 A    
O43   C22   1.281672 A    
C46   C54   1.381338 A    
O47   C24   1.280323 A    
Zn3   O15   1.939147 S    
C152  O60   1.385135 S    
C60   Cl44  1.762609 S    
Zn5   O12   1.931230 S    
Zn6   O11   1.936189 S    
C176  C180  1.395416 A    
Zn9   O21   1.928520 S    
Zn14  O50   1.965453 S    
C45   C53   1.387638 A    
O35   C14   1.283394 A    
O83   H51   0.988021 S    
Zn12  O40   1.965521 S    
C36   Cl31  1.801297 S    
Zn9   O1    1.959962 S    
O52   C20   1.282697 A    
C112  C152  1.418615 A    
C171  C172  1.395180 A    
C57   C65   1.413236 A    
O22   C3    1.310831 A    
C26   C38   1.612631 S    
C32   C39   1.609094 S    
C133  C137  1.386936 A    
C155  C164  1.419257 A    
C47   C87   1.411242 A    
C52   C64   1.382644 A    
Zn7   O19   1.939147 S    
H18   C177  1.083647 S    
C121  Cl9   1.774067 S    
O20   C16   1.280935 A    
C45   C85   1.413928 A    
C43   C83   1.416016 A    
C174  C178  1.386565 A    
Zn13  O32   1.933849 S    
C25   O69   1.417012 S    
C159  C160  1.413862 A    
O49   C17   1.276845 A    
Zn14  O31   1.928769 S    
C72   O88   1.367024 S    
C28   Cl4   1.826766 S    
O51   C19   1.276690 A    
C142  C150  1.404685 A    
O81   H49   0.988439 S    
Zn4   O5    1.939101 S    
C85   C117  1.428847 A    
C50   H10   1.083422 S    
C33   Cl28  1.807006 S    
C67   C75   1.429644 A    
O10   C6    1.274214 A    
O23   C2    1.290519 A    
C64   Cl48  1.755974 S    
C34   C38   1.596603 S    
C141  Cl37  1.770106 S    
C75   C91   1.440166 A    
O65   H33   0.989088 S    
Zn10  O38   1.965521 S    
C155  C159  1.415645 A    
C129  C141  1.402583 A    
O14   C10   1.275279 A    
O45   C23   1.283076 A    
C134  C138  1.391351 A    
O77   H45   0.990752 S    
O79   H47   0.991631 S    
C29   Cl5   1.803073 S    
O86   H54   0.987020 S    
C159  O67   1.383778 S    
C42   H2    1.082227 S    
