data_mof_unit_3172.cif
_audit_creation_date              2012-12-11T15:06:56-0500
_audit_creation_method            fapswitch 2.2
_symmetry_space_group_name_H-M    P1
_symmetry_Int_Tables_number       1
_space_group_crystal_system       triclinic
_cell_length_a                    19.793856
_cell_length_b                    11.377471
_cell_length_c                    18.678707
_cell_angle_alpha                 89.917214
_cell_angle_beta                  90.196312
_cell_angle_gamma                 90.053568
_cell_volume                      4206.48905255

loop_
_atom_site_label
_atom_site_type_symbol
_atom_type_description
_atom_site_fract_x
_atom_site_fract_y
_atom_site_fract_z
_atom_type_partial_charge
C1    C     C_R   0.762041 0.522880 0.638911 0.552979
C2    C     C_3   0.256000 0.057309 0.562561 0.064551
C3    C     C_R   0.739878 0.034673 0.151803 0.535222
C4    C     C_R   0.774469 0.132686 0.858773 0.536299
C5    C     C_R   0.225458 0.132983 0.141126 0.536677
C6    C     C_R   0.274469 0.632686 0.858773 0.536297
C7    C     C_R   0.725458 0.632983 0.141126 0.536678
C8    C     C_R   0.968323 0.353464 0.853869 0.539635
C9    C     C_R   0.031667 0.353498 0.146145 0.540272
C10   C     C_R   0.468323 0.853464 0.853869 0.539641
C11   C     C_R   0.531667 0.853498 0.146145 0.540273
C12   C     C_3   0.681692 0.123840 0.466863 0.165418
C13   C     C_3   0.244235 0.557259 0.437361 0.065514
C14   C     C_3   0.318583 0.123734 0.532875 0.165328
C15   C     C_3   0.181690 0.623844 0.466863 0.165420
C16   C     C_3   0.818583 0.623725 0.532869 0.165306
C17   C     C_3   0.691184 0.149509 0.547254 -0.181284
C18   C     C_3   0.309316 0.149313 0.452411 -0.181888
C19   C     C_3   0.191183 0.649510 0.547254 -0.181280
C20   C     C_3   0.809314 0.649308 0.452407 -0.181883
C21   C     C_3   0.755229 0.941421 0.481657 -0.257497
C22   C     C_3   0.244495 0.941307 0.518728 -0.256974
C23   C     C_3   0.255228 0.441426 0.481657 -0.257489
C24   C     C_3   0.755999 0.557308 0.562559 0.064543
C25   C     C_3   0.744492 0.441306 0.518728 -0.256974
C26   C     C_3   0.993792 0.021551 0.399301 -0.038130
C27   C     C_3   0.941325 0.944198 0.363201 -0.364697
C28   C     C_3   0.025517 0.016491 0.590133 -0.023762
C29   C     C_3   0.039226 0.979622 0.667150 -0.344023
C30   C     C_3   0.493792 0.521566 0.399272 -0.038120
C31   C     C_3   0.441316 0.444187 0.363209 -0.364745
C32   C     C_3   0.525518 0.516464 0.590072 -0.023805
C33   C     C_3   0.539154 0.479514 0.667080 -0.344089
C34   C     C_3   0.603427 0.235021 0.398221 -0.021906
C35   C     C_3   0.757558 0.092158 0.574919 0.018193
C36   C     C_3   0.607116 0.294023 0.325074 -0.347888
C37   C     C_3   0.398292 0.235997 0.598385 -0.023270
C38   C     C_3   0.397434 0.299419 0.670040 -0.351655
C39   C     C_3   0.103431 0.735031 0.398215 -0.021903
C40   C     C_3   0.107130 0.794003 0.325058 -0.347874
C41   C     C_3   0.898315 0.735960 0.598352 -0.023307
C42   C     C_3   0.897500 0.799598 0.669943 -0.351679
C43   C     C_3   0.242949 0.091752 0.424877 0.019690
C44   C     C_3   0.257557 0.592161 0.574918 0.018191
C45   C     C_3   0.742946 0.591749 0.424876 0.019692
C46   C     C_3   0.749134 0.961286 0.562750 -0.274122
C47   C     C_3   0.251082 0.960899 0.437575 -0.275174
C48   C     C_3   0.249134 0.461290 0.562749 -0.274116
C49   C     C_R   0.237996 0.522707 0.361094 0.553970
C50   C     C_3   0.751078 0.460896 0.437574 -0.275166
C51   C     C_3   0.819092 0.134679 0.530247 -0.228216
C52   C     C_3   0.181689 0.134798 0.469322 -0.229373
C53   C     C_3   0.319090 0.634684 0.530247 -0.228214
C54   C     C_3   0.681687 0.634797 0.469321 -0.229382
C55   C     C_3   0.009528 0.199530 0.460350 0.171921
C56   C     C_3   0.992068 0.200439 0.541960 0.184219
C57   C     C_3   0.509526 0.699528 0.460346 0.171904
C58   C     C_3   0.492065 0.700439 0.541957 0.184214
C59   C     C_3   0.062724 0.400830 0.473718 -0.281919
C60   C     C_R   0.262040 0.022880 0.638912 0.552956
C61   C     C_3   0.936199 0.399340 0.525639 -0.283982
C62   C     C_3   0.562725 0.900825 0.473717 -0.281917
C63   C     C_3   0.436200 0.899343 0.525638 -0.283982
C64   C     C_3   0.940353 0.379635 0.444844 -0.275474
C65   C     C_3   0.058527 0.383919 0.554770 -0.274419
C66   C     C_3   0.440353 0.879636 0.444843 -0.275479
C67   C     C_3   0.558528 0.883912 0.554768 -0.274427
C68   C     C_3   0.009880 0.327739 0.430714 0.061875
C69   C     C_3   0.989617 0.329142 0.569323 0.064904
C70   C     C_3   0.509879 0.827737 0.430713 0.061878
C71   C     C_R   0.737996 0.022705 0.361094 0.553979
C72   C     C_3   0.489617 0.829141 0.569322 0.064886
C73   C     C_3   0.818692 0.025812 0.046691 -0.233626
C74   C     C_3   0.181333 0.025748 0.953338 -0.233929
C75   C     C_3   0.318692 0.525812 0.046691 -0.233624
C76   C     C_3   0.681333 0.525748 0.953338 -0.233929
C77   C     C_R   0.773635 0.121113 0.649999 0.536828
C78   C     C_R   0.226587 0.120633 0.349799 0.538098
C79   C     C_R   0.273635 0.621114 0.649999 0.536822
C80   C     C_R   0.726587 0.620633 0.349798 0.538103
C81   C     C_3   0.818132 0.022279 0.965904 -0.236021
C82   C     C_3   0.804669 0.136716 0.449874 -0.254808
C83   C     C_3   0.181848 0.022413 0.034155 -0.235765
C84   C     C_3   0.318132 0.522279 0.965904 -0.236022
C85   C     C_3   0.681848 0.522413 0.034155 -0.235765
C86   C     C_3   0.691179 0.015677 0.031258 -0.223360
C87   C     C_3   0.308827 0.015905 0.968986 -0.223794
C88   C     C_3   0.191179 0.515677 0.031259 -0.223359
C89   C     C_3   0.808827 0.515905 0.968986 -0.223798
C90   C     C_3   0.744788 0.201772 0.060985 -0.255626
C91   C     C_3   0.255339 0.201793 0.938643 -0.255044
C92   C     C_3   0.244788 0.701772 0.060985 -0.255627
C93   C     C_3   0.195884 0.136740 0.549769 -0.253611
C94   C     C_3   0.755339 0.701793 0.938643 -0.255041
C95   C     C_3   0.748908 0.070910 0.075353 0.064417
C96   C     C_3   0.251155 0.070876 0.924631 0.064412
C97   C     C_3   0.248908 0.570910 0.075353 0.064418
C98   C     C_3   0.751155 0.570876 0.924631 0.064405
C99   C     C_3   0.760885 0.103596 0.935980 0.062591
C100  C     C_3   0.239069 0.104003 0.063930 0.062407
C101  C     C_3   0.260885 0.603596 0.935980 0.062592
C102  C     C_3   0.739069 0.604003 0.063930 0.062407
C103  C     C_3   0.694077 0.042229 0.949943 -0.252968
C104  C     C_3   0.304667 0.636721 0.449874 -0.254815
C105  C     C_3   0.305924 0.042903 0.050186 -0.252672
C106  C     C_3   0.194077 0.542229 0.949943 -0.252968
C107  C     C_3   0.805924 0.542902 0.050186 -0.252670
C108  C     C_3   0.758730 0.218845 0.980112 -0.229611
C109  C     C_3   0.241201 0.219132 0.019432 -0.230188
C110  C     C_3   0.258730 0.718845 0.980112 -0.229611
C111  C     C_3   0.741201 0.719132 0.019432 -0.230191
C112  C     C_3   0.998897 0.480077 0.040602 -0.236055
C113  C     C_3   0.001186 0.480046 0.959220 -0.235767
C114  C     C_3   0.498897 0.980077 0.040602 -0.236055
C115  C     C_3   0.695885 0.636744 0.549768 -0.253623
C116  C     C_3   0.501186 0.980046 0.959220 -0.235767
C117  C     C_3   0.067092 0.292452 0.026287 -0.226735
C118  C     C_3   0.932768 0.292538 0.973838 -0.226789
C119  C     C_3   0.567092 0.792452 0.026287 -0.226736
C120  C     C_3   0.432768 0.792538 0.973838 -0.226789
C121  C     C_3   0.947008 0.281771 0.054794 -0.256253
C122  C     C_3   0.052851 0.281660 0.945363 -0.256456
C123  C     C_3   0.447008 0.781771 0.054794 -0.256252
C124  C     C_3   0.552851 0.781660 0.945363 -0.256455
C125  C     C_R   0.969253 0.341722 0.645328 0.566606
C126  C     C_3   0.744237 0.057255 0.437361 0.065513
C127  C     C_R   0.030476 0.341226 0.354619 0.561922
C128  C     C_R   0.469253 0.841722 0.645327 0.566608
C129  C     C_R   0.530476 0.841226 0.354619 0.561926
C130  C     C_3   0.010374 0.352394 0.069560 0.064696
C131  C     C_3   0.989580 0.352332 0.930469 0.065049
C132  C     C_3   0.510374 0.852395 0.069560 0.064696
C133  C     C_3   0.489580 0.852332 0.930469 0.065047
C134  C     C_R   0.760177 0.534525 0.848246 0.535390
C135  C     C_R   0.239878 0.534673 0.151803 0.535219
C136  C     C_R   0.260177 0.034525 0.848246 0.535374
Cr1   Cr    Cr6+3 0.885690 0.492860 0.745310 0.975662
Cr2   Cr    Cr6+3 0.111880 0.178590 0.246990 0.974221
Cr3   Cr    Cr6+3 0.388120 0.678590 0.753010 0.978527
Cr4   Cr    Cr6+3 0.611880 0.678590 0.246990 0.974202
Cr5   Cr    Cr6+3 0.114310 0.492860 0.254690 0.973522
Cr6   Cr    Cr6+3 0.385690 0.992860 0.745310 0.975620
Cr7   Cr    Cr6+3 0.614310 0.992860 0.254690 0.973530
Cr8   Cr    Cr6+3 0.729880 0.332270 0.748190 0.976349
Cr9   Cr    Cr6+3 0.270120 0.332270 0.251810 0.976427
Cr10  Cr    Cr6+3 0.229880 0.832270 0.748190 0.976328
Cr11  Cr    Cr6+3 0.770120 0.832270 0.251810 0.976430
Cr12  Cr    Cr6+3 0.888120 0.178590 0.753010 0.978507
H1    H     H_    0.641126 0.063447 0.463477 0.103264
H2    H     H_    0.191407 0.914665 0.528069 0.151965
H3    H     H_    0.891762 0.351781 0.967019 0.108569
H4    H     H_    0.596183 0.815116 0.913555 0.100677
H5    H     H_    0.403719 0.815263 0.086542 0.100746
H6    H     H_    0.096183 0.315116 0.913555 0.100673
H7    H     H_    0.903719 0.315263 0.086542 0.100746
H8    H     H_    0.955622 0.188307 0.069622 0.119630
H9    H     H_    0.044153 0.188176 0.930717 0.118953
H10   H     H_    0.455622 0.688307 0.069622 0.119630
H11   H     H_    0.544153 0.688176 0.930717 0.118957
H12   H     H_    0.920691 0.205490 0.951782 0.133901
H13   H     H_    0.307953 0.413912 0.472549 0.150876
H14   H     H_    0.079077 0.205386 0.048493 0.134287
H15   H     H_    0.420691 0.705490 0.951782 0.133901
H16   H     H_    0.579077 0.705386 0.048493 0.134287
H17   H     H_    0.647281 0.115117 0.577820 0.070581
H18   H     H_    0.353284 0.115026 0.422024 0.070572
H19   H     H_    0.147280 0.615115 0.577819 0.070576
H20   H     H_    0.853281 0.615023 0.422018 0.070575
H21   H     H_    0.721652 0.871256 0.464176 0.110818
H22   H     H_    0.277662 0.870622 0.536576 0.111998
H23   H     H_    0.221652 0.371259 0.464176 0.110823
H24   H     H_    0.691403 0.414667 0.528071 0.151955
H25   H     H_    0.777661 0.370620 0.536575 0.111992
H26   H     H_    0.699729 0.930213 0.583125 0.101067
H27   H     H_    0.300560 0.929628 0.417613 0.101926
H28   H     H_    0.199730 0.430214 0.583126 0.101070
H29   H     H_    0.800556 0.429622 0.417612 0.101925
H30   H     H_    0.848194 0.103880 0.419704 0.190427
H31   H     H_    0.152817 0.102441 0.579856 0.184906
H32   H     H_    0.348192 0.603889 0.419703 0.190431
H33   H     H_    0.652817 0.602459 0.579860 0.184909
H34   H     H_    0.794692 0.227160 0.430905 0.154906
H35   H     H_    0.788697 0.913635 0.592377 0.204830
H36   H     H_    0.205488 0.227175 0.568929 0.156528
H37   H     H_    0.294689 0.727166 0.430905 0.154910
H38   H     H_    0.705495 0.727180 0.568924 0.156521
H39   H     H_    0.837443 0.219628 0.548931 0.104663
H40   H     H_    0.163825 0.220095 0.450382 0.106299
H41   H     H_    0.337441 0.719633 0.548931 0.104661
H42   H     H_    0.663823 0.720093 0.450380 0.106303
H43   H     H_    0.014638 0.972500 0.445495 0.100192
H44   H     H_    0.034738 0.038778 0.360291 0.178555
H45   H     H_    0.917265 0.992419 0.318135 0.187599
H46   H     H_    0.211542 0.913521 0.407867 0.204731
H47   H     H_    0.965156 0.863453 0.342157 0.077921
H48   H     H_    0.902764 0.917172 0.402701 0.149839
H49   H     H_    0.060770 0.966841 0.555430 0.116688
H50   H     H_    0.973011 0.990814 0.575555 0.113804
H51   H     H_    0.997831 0.010678 0.702332 0.151653
H52   H     H_    0.043212 0.882542 0.670533 0.079444
H53   H     H_    0.087514 0.018084 0.686390 0.190277
H54   H     H_    0.514679 0.472521 0.445445 0.100163
H55   H     H_    0.534709 0.538814 0.360234 0.178597
H56   H     H_    0.417230 0.492379 0.318151 0.187611
H57   H     H_    0.288699 0.413646 0.592376 0.204824
H58   H     H_    0.465145 0.363454 0.342164 0.077928
H59   H     H_    0.402781 0.417159 0.402728 0.149822
H60   H     H_    0.560811 0.466865 0.555393 0.116704
H61   H     H_    0.473034 0.490786 0.575423 0.113853
H62   H     H_    0.497742 0.510556 0.702237 0.151696
H63   H     H_    0.543117 0.382436 0.670425 0.079395
H64   H     H_    0.587430 0.517918 0.686370 0.190257
H65   H     H_    0.570770 0.287132 0.434395 0.099895
H66   H     H_    0.578699 0.148748 0.389467 0.160255
H67   H     H_    0.649826 0.258085 0.293594 0.188258
H68   H     H_    0.711538 0.413517 0.407867 0.204732
H69   H     H_    0.559862 0.278300 0.294473 0.078179
H70   H     H_    0.614423 0.389602 0.331478 0.144515
H71   H     H_    0.429924 0.285485 0.559656 0.102850
H72   H     H_    0.422690 0.149814 0.608552 0.159199
H73   H     H_    0.354823 0.267567 0.703399 0.185812
H74   H     H_    0.445059 0.282427 0.699700 0.077928
H75   H     H_    0.392013 0.395061 0.661424 0.152592
H76   H     H_    0.070775 0.787167 0.434376 0.099896
H77   H     H_    0.078696 0.648762 0.389472 0.160233
H78   H     H_    0.149846 0.758053 0.293591 0.188270
H79   H     H_    0.060264 0.169823 0.454563 0.127262
H80   H     H_    0.059881 0.778268 0.294453 0.078187
H81   H     H_    0.114437 0.889584 0.331449 0.144514
H82   H     H_    0.929973 0.785282 0.559557 0.102786
H83   H     H_    0.922656 0.649750 0.608616 0.159367
H84   H     H_    0.854836 0.767980 0.703323 0.185738
H85   H     H_    0.945096 0.782523 0.699642 0.077970
H86   H     H_    0.892196 0.895246 0.661214 0.152509
H87   H     H_    0.942302 0.166167 0.550344 0.138755
H88   H     H_    0.560261 0.669817 0.454560 0.127263
H89   H     H_    0.358666 0.062875 0.536737 0.104014
H90   H     H_    0.442298 0.666175 0.550341 0.138775
H91   H     H_    0.614015 0.883536 0.454706 0.098902
H92   H     H_    0.385121 0.882922 0.545350 0.098242
H93   H     H_    0.114014 0.383541 0.454707 0.098902
H94   H     H_    0.885121 0.382915 0.545351 0.098236
H95   H     H_    0.599895 0.826625 0.574299 0.154427
H96   H     H_    0.400042 0.819310 0.426364 0.151670
H97   H     H_    0.099895 0.326638 0.574301 0.154433
H98   H     H_    0.900042 0.319308 0.426364 0.151671
H99   H     H_    0.933449 0.464507 0.416189 0.115441
H100  H     H_    0.141124 0.563454 0.463474 0.103269
H101  H     H_    0.063958 0.470152 0.582115 0.114635
H102  H     H_    0.433449 0.964508 0.416187 0.115443
H103  H     H_    0.563963 0.970144 0.582115 0.114640
H104  H     H_    0.950195 0.492648 0.534160 0.125773
H105  H     H_    0.048642 0.493754 0.463684 0.127079
H106  H     H_    0.450197 0.992650 0.534157 0.125782
H107  H     H_    0.548643 0.993749 0.463685 0.127079
H108  H     H_    0.833858 0.937182 0.064952 0.139036
H109  H     H_    0.166175 0.937052 0.935270 0.138657
H110  H     H_    0.333858 0.437182 0.064952 0.139036
H111  H     H_    0.858662 0.562858 0.536725 0.103990
H112  H     H_    0.666175 0.437052 0.935270 0.138657
H113  H     H_    0.859137 0.085238 0.066004 0.114785
H114  H     H_    0.140914 0.085072 0.933842 0.114510
H115  H     H_    0.359137 0.585238 0.066004 0.114785
H116  H     H_    0.640914 0.585072 0.933842 0.114514
H117  H     H_    0.869742 0.043821 0.948053 0.133860
H118  H     H_    0.130237 0.043920 0.051911 0.134050
H119  H     H_    0.369742 0.543821 0.948053 0.133860
H120  H     H_    0.630237 0.543920 0.051911 0.134050
H121  H     H_    0.809356 0.931217 0.947133 0.116172
H122  H     H_    0.858927 0.067494 0.538717 0.138590
H123  H     H_    0.190612 0.931409 0.053162 0.116323
H124  H     H_    0.309357 0.431217 0.947133 0.116170
H125  H     H_    0.690612 0.431409 0.053162 0.116324
H126  H     H_    0.699548 0.924148 0.039738 0.108657
H127  H     H_    0.300316 0.924340 0.961072 0.108674
H128  H     H_    0.199548 0.424148 0.039738 0.108657
H129  H     H_    0.800316 0.424340 0.961072 0.108672
H130  H     H_    0.689855 0.959896 0.918334 0.101213
H131  H     H_    0.310187 0.960756 0.082109 0.101140
H132  H     H_    0.189855 0.459896 0.918334 0.101211
H133  H     H_    0.141838 0.067525 0.460612 0.127529
H134  H     H_    0.810187 0.460756 0.082110 0.101140
H135  H     H_    0.693651 0.234874 0.074886 0.118008
H136  H     H_    0.306533 0.234914 0.924779 0.118264
H137  H     H_    0.193651 0.734874 0.074886 0.118008
H138  H     H_    0.806533 0.734914 0.924780 0.118269
H139  H     H_    0.782367 0.250324 0.094020 0.099986
H140  H     H_    0.217879 0.250191 0.905347 0.100007
H141  H     H_    0.282367 0.750324 0.094020 0.099985
H142  H     H_    0.717879 0.750191 0.905348 0.100013
H143  H     H_    0.809199 0.250715 0.976638 0.110027
H144  H     H_    0.358926 0.567499 0.538716 0.138600
H145  H     H_    0.190685 0.250818 0.022507 0.110093
H146  H     H_    0.309198 0.750715 0.976638 0.110028
H147  H     H_    0.690685 0.750818 0.022507 0.110093
H148  H     H_    0.721889 0.280599 0.956922 0.126865
H149  H     H_    0.277958 0.281120 0.042527 0.126444
H150  H     H_    0.221889 0.780599 0.956922 0.126866
H151  H     H_    0.777958 0.781120 0.042527 0.126444
H152  H     H_    0.641860 0.042652 0.052632 0.129440
H153  H     H_    0.358199 0.042655 0.947510 0.129161
H154  H     H_    0.141860 0.542652 0.052632 0.129440
H155  H     H_    0.641837 0.567524 0.460614 0.127523
H156  H     H_    0.858199 0.542654 0.947511 0.129159
H157  H     H_    0.690837 0.243071 0.558027 0.159541
H158  H     H_    0.309526 0.242989 0.441531 0.157689
H159  H     H_    0.190833 0.743072 0.558029 0.159543
H160  H     H_    0.809524 0.742984 0.441530 0.157691
H161  H     H_    0.651874 0.101228 0.934102 0.118645
H162  H     H_    0.348135 0.102131 0.065794 0.118832
H163  H     H_    0.151874 0.601228 0.934102 0.118644
H164  H     H_    0.848135 0.602131 0.065794 0.118832
H165  H     H_    0.035631 0.545860 0.059953 0.133259
H166  H     H_    0.807954 0.913907 0.472550 0.150882
H167  H     H_    0.964489 0.545809 0.939779 0.133408
H168  H     H_    0.535631 0.045860 0.059953 0.133259
H169  H     H_    0.464489 0.045809 0.939779 0.133408
H170  H     H_    0.949118 0.512131 0.059064 0.115980
H171  H     H_    0.050971 0.512109 0.940678 0.115940
H172  H     H_    0.449118 0.012131 0.059064 0.115979
H173  H     H_    0.550971 0.012109 0.940678 0.115941
H174  H     H_    0.608183 0.851587 0.032974 0.108560
H175  H     H_    0.391762 0.851781 0.967019 0.108569
H176  H     H_    0.108183 0.351587 0.032974 0.108560
O1    O     O_R   0.957210 0.449410 0.665480 -0.556231
O2    O     O_R   0.167480 0.095300 0.164000 -0.537962
O3    O     O_R   0.332520 0.595300 0.836000 -0.538832
O4    O     O_R   0.667480 0.595300 0.164000 -0.537962
O5    O     O_R   0.946380 0.253940 0.826940 -0.515934
O6    O     O_R   0.053620 0.253940 0.173060 -0.513820
O7    O     O_R   0.446380 0.753940 0.826940 -0.515925
O8    O     O_R   0.553620 0.753940 0.173060 -0.513822
O9    O     O_3   0.834560 0.334570 0.748840 -0.276350
O10   O     O_3   0.165440 0.334570 0.251160 -0.274111
O11   O     O_3   0.334560 0.834570 0.748840 -0.276340
O12   O     O_R   0.042790 0.449410 0.334520 -0.554120
O13   O     O_3   0.665440 0.834570 0.251160 -0.274111
O14   O     O_R   0.820730 0.541240 0.668250 -0.495712
O15   O     O_R   0.179270 0.541240 0.331750 -0.498599
O16   O     O_R   0.320730 0.041240 0.668250 -0.495742
O17   O     O_R   0.679270 0.041240 0.331750 -0.498590
O18   O     O_R   0.714240 0.455060 0.663710 -0.552828
O19   O     O_R   0.285760 0.455060 0.336290 -0.554335
O20   O     O_R   0.214240 0.955060 0.663710 -0.552855
O21   O     O_R   0.785760 0.955060 0.336290 -0.554334
O22   O     O_R   0.736780 0.204870 0.675910 -0.514761
O23   O     O_R   0.457210 0.949410 0.665480 -0.556184
O24   O     O_R   0.263220 0.204870 0.324090 -0.513961
O25   O     O_R   0.236780 0.704870 0.675910 -0.514758
O26   O     O_R   0.763220 0.704870 0.324090 -0.513965
O27   O     O_R   0.833070 0.087590 0.673490 -0.547310
O28   O     O_R   0.166930 0.087590 0.326510 -0.558237
O29   O     O_R   0.333070 0.587590 0.673490 -0.547323
O30   O     O_R   0.666930 0.587590 0.326510 -0.558240
O31   O     O_R   0.946890 0.246800 0.676300 -0.486444
O32   O     O_R   0.053110 0.246800 0.323700 -0.501018
O33   O     O_R   0.446890 0.746800 0.676300 -0.486418
O34   O     O_R   0.542790 0.949410 0.334520 -0.554124
O35   O     O_R   0.553110 0.746800 0.323700 -0.501047
O36   O     O_R   0.956650 0.457120 0.827980 -0.533902
O37   O     O_R   0.043350 0.457120 0.172020 -0.533577
O38   O     O_R   0.456650 0.957120 0.827980 -0.533903
O39   O     O_R   0.543350 0.957120 0.172020 -0.533576
O40   O     O_R   0.820220 0.548390 0.818890 -0.515830
O41   O     O_R   0.179780 0.548390 0.181110 -0.517117
O42   O     O_R   0.320220 0.048390 0.818890 -0.515873
O43   O     O_R   0.679780 0.048390 0.181110 -0.517112
O44   O     O_R   0.713680 0.462770 0.826210 -0.536404
O45   O     O_R   0.736260 0.212010 0.826560 -0.509750
O46   O     O_R   0.286320 0.462770 0.173790 -0.534919
O47   O     O_R   0.213680 0.962770 0.826210 -0.536410
O48   O     O_R   0.786320 0.962770 0.173790 -0.534918
O49   O     O_3   0.963597 0.128151 0.421387 -0.611322
O50   O     O_3   0.039935 0.137798 0.583355 -0.610478
O51   O     O_3   0.463593 0.628150 0.421383 -0.611330
O52   O     O_3   0.539924 0.637781 0.583353 -0.610440
O53   O     O_3   0.669461 0.228577 0.427761 -0.599988
O54   O     O_3   0.331208 0.228289 0.571848 -0.597695
O55   O     O_3   0.169461 0.728584 0.427763 -0.599997
O56   O     O_R   0.263740 0.212010 0.173440 -0.509487
O57   O     O_3   0.831219 0.728275 0.571842 -0.597664
O58   O     O_R   0.236260 0.712010 0.826560 -0.509748
O59   O     O_R   0.763740 0.712010 0.173440 -0.509487
O60   O     O_R   0.832520 0.095300 0.836000 -0.538822

loop_
_geom_bond_atom_site_label_1
_geom_bond_atom_site_label_2
_ccdc_geom_bond_type
C99   C103  S    
C22   H2    S    
C94   H142  S    
C118  H12   S    
C74   C83   S    
C58   O52   S    
C18   H18   S    
C90   C95   S    
C76   H112  S    
Cr12  O31   S    
C124  C133  S    
Cr12  O5    S    
C36   H67   S    
C108  H143  S    
C106  H163  S    
C12   C126  S    
C76   C98   S    
C94   C111  S    
C18   H158  S    
C120  C133  S    
C134  O40   A    
C118  C131  S    
C89   H156  S    
C91   C96   S    
C44   C53   S    
C41   H83   S    
C29   H51   S    
C7    C102  S    
C2    C22   S    
C46   H26   S    
C56   H87   S    
C88   C97   S    
Cr8   O45   S    
C22   C47   S    
Cr2   O10   S    
C21   H166  S    
Cr1   O40   S    
C128  O23   A    
C102  C111  S    
C127  O32   A    
C19   H19   S    
C73   C81   S    
C8    O5    A    
C30   H54   S    
C75   H115  S    
C88   H154  S    
C115  H38   S    
Cr5   O41   S    
C116  C133  S    
C81   C99   S    
C7    O59   A    
C101  C110  S    
C70   C129  S    
C62   H91   S    
C84   H119  S    
C38   H75   S    
C31   H59   S    
C37   C38   S    
C14   O54   S    
C74   C96   S    
C8    O36   A    
C5    C100  S    
C16   C20   S    
C119  H174  S    
C82   H30   S    
C5    O56   A    
C22   H22   S    
C83   C100  S    
C35   C51   S    
C39   H76   S    
C73   C95   S    
C39   O55   S    
C19   C44   S    
C112  H165  S    
C44   C79   S    
C92   H137  S    
C34   H65   S    
C36   H69   S    
C14   H89   S    
C26   H43   S    
C112  H170  S    
C28   H49   S    
Cr7   O34   S    
Cr1   O9    S    
C32   H61   S    
C66   C70   S    
C109  H145  S    
C45   C50   S    
C61   H104  S    
C110  H150  S    
C42   H85   S    
C45   C80   S    
C40   H78   S    
C2    C14   S    
C86   C95   S    
C4    O60   A    
C25   H25   S    
C64   H98   S    
C15   H100  S    
C6    O58   A    
C64   H99   S    
Cr5   O10   S    
C3    C95   S    
C27   H48   S    
C37   H72   S    
C21   C126  S    
Cr9   O19   S    
C43   C47   S    
C76   C85   S    
C77   O27   A    
C44   C48   S    
Cr10  O47   S    
C66   H102  S    
C121  H8    S    
C123  C132  S    
C59   H105  S    
C121  C130  S    
Cr3   O29   S    
Cr3   O7    S    
C99   C108  S    
C62   C70   S    
Cr11  O48   S    
C64   C68   S    
C38   H73   S    
Cr9   O10   S    
Cr4   O13   S    
C34   O53   S    
C11   O39   A    
C105  H162  S    
C75   C84   S    
C53   C104  S    
C80   O26   A    
C13   C23   S    
C67   C72   S    
C55   H79   S    
C25   C50   S    
C80   O30   A    
C125  O31   A    
C56   O50   S    
C122  H9    S    
C71   C126  S    
C32   H60   S    
C120  H15   S    
C49   O15   A    
C76   H116  S    
C81   H117  S    
C60   O16   A    
C87   H127  S    
Cr12  O9    S    
C116  H173  S    
C73   H113  S    
C92   C97   S    
C62   H107  S    
Cr3   O3    S    
C111  H147  S    
C37   O54   S    
C113  H167  S    
C19   H159  S    
C52   C93   S    
C114  H168  S    
C39   C40   S    
C103  H161  S    
C40   H80   S    
C117  C122  S    
C73   H108  S    
C33   H62   S    
C129  O35   A    
Cr4   O30   S    
C87   C105  S    
C26   O49   S    
C8    C131  S    
C89   H129  S    
Cr4   O4    S    
Cr5   O12   S    
C125  O1    A    
C102  C107  S    
C31   H56   S    
C15   O55   S    
C79   O25   A    
C11   O8    A    
C87   H153  S    
C107  H134  S    
C30   O51   S    
C97   C135  S    
C122  C131  S    
Cr4   O35   S    
Cr5   O37   S    
C101  C106  S    
C54   H42   S    
C90   H135  S    
C71   O17   A    
Cr10  O20   S    
C20   C45   S    
C78   O28   A    
C119  H16   S    
Cr9   O46   S    
C114  C116  S    
C136  O42   A    
C117  H14   S    
C82   H34   S    
Cr9   O56   S    
C89   C98   S    
C57   O51   S    
C90   C108  S    
Cr6   O11   S    
C59   C65   S    
Cr2   O32   S    
C92   C110  S    
C57   C58   S    
C32   O52   S    
C21   H21   S    
Cr2   O2    S    
C85   H125  S    
C34   C36   S    
Cr4   O8    S    
C100  C109  S    
C41   H82   S    
C1    C24   S    
C56   C69   S    
C4    C99   S    
Cr6   O42   S    
C52   H40   S    
C103  H130  S    
C112  C130  S    
C40   H81   S    
C53   H41   S    
C47   H27   S    
C85   C102  S    
C48   H28   S    
C23   H23   S    
C42   H84   S    
C55   C56   S    
C41   C42   S    
Cr5   O15   S    
C71   O21   A    
C10   C133  S    
C11   C132  S    
C55   C68   S    
C93   H31   S    
C96   C136  S    
C117  H176  S    
C9    C130  S    
Cr10  O58   S    
C43   C78   S    
C15   C19   S    
C30   H55   S    
C110  H146  S    
C26   C27   S    
C28   C29   S    
C30   C31   S    
C33   H64   S    
C2    C60   S    
Cr6   O23   S    
C63   H106  S    
C94   C98   S    
C75   C97   S    
Cr10  O25   S    
C82   C126  S    
C52   H133  S    
C48   H57   S    
Cr8   O22   S    
C57   C70   S    
C120  C123  S    
Cr6   O16   S    
C63   C66   S    
C69   C125  S    
C20   H160  S    
C28   O50   S    
C85   H120  S    
C91   H140  S    
C135  O46   A    
Cr1   O1    S    
Cr12  O60   S    
C29   H53   S    
C50   H29   S    
Cr8   O9    S    
C34   H66   S    
Cr7   O39   S    
C63   H92   S    
C26   H44   S    
C35   C77   S    
C28   H50   S    
Cr10  O11   S    
C54   H155  S    
C61   C64   S    
C49   O19   A    
C50   H68   S    
Cr1   O14   S    
C29   H52   S    
C54   C115  S    
C89   C107  S    
C81   H121  S    
C60   O20   A    
C13   C104  S    
Cr8   O18   S    
C68   C127  S    
C74   H114  S    
C25   H24   S    
C111  H151  S    
C3    O48   A    
C113  H171  S    
C114  H172  S    
C37   H71   S    
C36   H70   S    
C57   H88   S    
C123  H5    S    
C61   H94   S    
C65   H97   S    
C67   H95   S    
C121  H7    S    
C12   H1    S    
C83   H118  S    
C128  O33   A    
Cr11  O21   S    
C16   O57   S    
Cr2   O28   S    
C32   C33   S    
C38   H74   S    
C17   H17   S    
C18   C43   S    
C66   H96   S    
C65   C69   S    
Cr12  O27   S    
C88   H128  S    
C6    O3    A    
C43   C52   S    
C39   H77   S    
C51   H39   S    
C41   O57   S    
C4    O45   A    
C63   C72   S    
Cr8   O44   S    
C17   H157  S    
C90   H139  S    
C17   C35   S    
C78   O24   A    
C35   C46   S    
C134  O44   A    
C5    O2    A    
C65   H101  S    
C42   H86   S    
C10   O7    A    
C14   C18   S    
C47   H46   S    
C108  H148  S    
C94   H138  S    
C119  C124  S    
C104  H37   S    
Cr2   O6    S    
C100  C105  S    
C62   C67   S    
C72   C128  S    
Cr1   O36   S    
C86   H126  S    
Cr11  O59   S    
C93   H36   S    
C86   H152  S    
C10   O38   A    
C120  H175  S    
C9    O6    A    
C124  H11   S    
Cr6   O38   S    
C55   O49   S    
C6    C101  S    
C1    O18   A    
C129  O34   A    
C79   O29   A    
C92   H141  S    
C127  O12   A    
C75   H110  S    
C27   H45   S    
Cr7   O17   S    
C124  H4    S    
C16   C24   S    
Cr11  O13   S    
C84   C101  S    
C122  H6    S    
C86   C103  S    
C112  C113  S    
C115  H33   S    
C20   H20   S    
C84   H124  S    
C24   C25   S    
C31   H58   S    
C16   H111  S    
C136  O47   A    
C118  C121  S    
C46   H35   S    
C83   H123  S    
C53   H144  S    
C59   C68   S    
C88   C106  S    
C107  H164  S    
C87   C96   S    
C119  C132  S    
C91   H136  S    
C117  C130  S    
C51   C82   S    
Cr9   O24   S    
C13   C49   S    
C109  H149  S    
C45   C54   S    
C13   C15   S    
C105  H131  S    
C51   H122  S    
C106  H132  S    
Cr7   O43   S    
C21   C46   S    
C74   H109  S    
C61   C69   S    
C23   C48   S    
C113  C131  S    
C114  C132  S    
C2    C93   S    
C12   O53   S    
C135  O41   A    
C3    O43   A    
C116  H169  S    
C123  H10   S    
C98   C134  S    
C59   H93   S    
C91   C109  S    
C1    O14   A    
Cr3   O33   S    
C12   C17   S    
C33   H63   S    
C58   C72   S    
C104  H32   S    
Cr11  O26   S    
Cr3   O11   S    
C118  H3    S    
C77   O22   A    
C27   H47   S    
C24   C115  S    
Cr7   O13   S    
C7    O4    A    
C58   H90   S    
C9    O37   A    
C23   H13   S    
C67   H103  S    
