data_mof_unit_1534.cif
_audit_creation_date              2013-03-05T15:47:19-0500
_audit_creation_method            fapswitch 2.2
_symmetry_space_group_name_H-M    P1
_symmetry_Int_Tables_number       1
_space_group_crystal_system       triclinic
_cell_length_a                    19.553671
_cell_length_b                    11.327347
_cell_length_c                    18.631675
_cell_angle_alpha                 90.108255
_cell_angle_beta                  89.592307
_cell_angle_gamma                 90.088895
_cell_volume                      4126.63564333

loop_
_atom_site_label
_atom_site_type_symbol
_atom_site_description
_atom_site_fract_x
_atom_site_fract_y
_atom_site_fract_z
_atom_type_partial_charge
O1    O     O_R   0.214130 0.708570 0.829890 -0.529393
O2    O     O_R   0.785870 0.708570 0.170110 -0.524752
O3    O     O_R   0.714130 0.208570 0.829890 -0.529394
O4    O     O_R   0.285870 0.208570 0.170110 -0.524752
O5    O     O_R   0.236050 0.959150 0.825270 -0.520671
O6    O     O_R   0.763950 0.959150 0.174730 -0.520983
O7    O     O_R   0.736050 0.459150 0.825270 -0.520676
O8    O     O_R   0.263950 0.459150 0.174730 -0.520982
C1    C     C_R   0.272458 0.043478 0.853942 0.525079
C2    C     C_R   0.727536 0.043325 0.146041 0.523991
C3    C     C_R   0.772458 0.543479 0.853942 0.525090
C4    C     C_R   0.227536 0.543325 0.146041 0.523990
O9    O     O_R   0.332100 0.076650 0.832310 -0.531108
O10   O     O_R   0.667900 0.076650 0.167690 -0.531705
O11   O     O_R   0.832100 0.576650 0.832310 -0.531109
O12   O     O_R   0.167900 0.576650 0.167690 -0.531705
O13   O     O_R   0.446500 0.918620 0.826240 -0.512623
O14   O     O_R   0.553500 0.918620 0.173760 -0.505886
O15   O     O_R   0.946500 0.418620 0.826240 -0.512626
O16   O     O_R   0.053500 0.418620 0.173760 -0.505885
C5    C     C_R   0.444916 0.817278 0.862491 0.536581
C6    C     C_R   0.555151 0.817158 0.137506 0.537533
C7    C     C_R   0.944916 0.317277 0.862491 0.536579
C8    C     C_R   0.055151 0.317158 0.137506 0.537533
O17   O     O_R   0.457310 0.715830 0.831280 -0.532351
O18   O     O_R   0.542690 0.715830 0.168720 -0.531461
O19   O     O_R   0.957310 0.215830 0.831280 -0.532356
O20   O     O_R   0.042690 0.215830 0.168720 -0.531460
O21   O     O_R   0.321000 0.623520 0.824130 -0.514321
O22   O     O_R   0.679000 0.623520 0.175870 -0.514749
O23   O     O_R   0.821000 0.123520 0.824130 -0.514323
O24   O     O_R   0.179000 0.123520 0.175870 -0.514750
C9    C     C_R   0.262038 0.642081 0.854819 0.539810
C10   C     C_R   0.737979 0.641788 0.145219 0.542299
C11   C     C_R   0.762038 0.142081 0.854819 0.539806
C12   C     C_R   0.237979 0.141788 0.145219 0.542298
O25   O     O_R   0.213990 0.710040 0.667000 -0.541135
O26   O     O_R   0.786010 0.710040 0.333000 -0.526471
O27   O     O_R   0.713990 0.210040 0.667000 -0.541137
O28   O     O_R   0.286010 0.210040 0.333000 -0.526472
O29   O     O_R   0.235920 0.960520 0.674260 -0.528748
O30   O     O_R   0.764080 0.960520 0.325740 -0.530170
O31   O     O_R   0.735920 0.460520 0.674260 -0.528757
O32   O     O_R   0.264080 0.460520 0.325740 -0.530165
C13   C     C_R   0.275172 0.041059 0.645446 0.562310
C14   C     C_R   0.725419 0.042490 0.353963 0.559696
C15   C     C_R   0.775169 0.541069 0.645448 0.562262
C16   C     C_R   0.225418 0.542488 0.353965 0.559694
O33   O     O_R   0.331960 0.078120 0.669410 -0.539026
O34   O     O_R   0.668040 0.078120 0.330590 -0.544737
O35   O     O_R   0.831960 0.578120 0.669410 -0.539024
O36   O     O_R   0.168040 0.578120 0.330590 -0.544739
O37   O     O_R   0.446360 0.919990 0.675230 -0.509054
O38   O     O_R   0.553640 0.919990 0.324770 -0.505822
O39   O     O_R   0.946360 0.419990 0.675230 -0.509056
O40   O     O_R   0.053640 0.419990 0.324770 -0.505822
C17   C     C_R   0.470464 0.823367 0.646636 0.544547
C18   C     C_R   0.529806 0.823648 0.353636 0.544924
C19   C     C_R   0.970463 0.323367 0.646635 0.544534
C20   C     C_R   0.029806 0.323648 0.353636 0.544925
O41   O     O_R   0.457170 0.717300 0.668380 -0.545605
O42   O     O_R   0.542830 0.717300 0.331620 -0.545597
O43   O     O_R   0.957170 0.217300 0.668380 -0.545588
O44   O     O_R   0.042830 0.217300 0.331620 -0.545598
O45   O     O_R   0.320870 0.624890 0.673130 -0.505118
O46   O     O_R   0.679130 0.624890 0.326870 -0.504765
O47   O     O_R   0.820870 0.124890 0.673130 -0.505126
O48   O     O_R   0.179130 0.124890 0.326870 -0.504768
C21   C     C_R   0.272463 0.681261 0.636230 0.549499
C22   C     C_R   0.727503 0.681734 0.363866 0.549439
C23   C     C_R   0.772459 0.181245 0.636231 0.549514
C24   C     C_R   0.227504 0.181731 0.363865 0.549443
Cr1   Cr    Cr6+3 0.229620 0.836040 0.749110 0.964072
Cr2   Cr    Cr6+3 0.770380 0.836040 0.250890 0.973264
Cr3   Cr    Cr6+3 0.729620 0.336040 0.749110 0.964074
Cr4   Cr    Cr6+3 0.270380 0.336040 0.250890 0.973265
Cr5   Cr    Cr6+3 0.387630 0.990680 0.750730 0.976767
Cr6   Cr    Cr6+3 0.612370 0.990680 0.249270 0.978862
Cr7   Cr    Cr6+3 0.887630 0.490680 0.750730 0.976766
Cr8   Cr    Cr6+3 0.112370 0.490680 0.249270 0.978862
Cr9   Cr    Cr6+3 0.386020 0.676590 0.749210 0.978845
Cr10  Cr    Cr6+3 0.613980 0.676590 0.250790 0.980908
Cr11  Cr    Cr6+3 0.886020 0.176590 0.749210 0.978846
Cr12  Cr    Cr6+3 0.113980 0.176590 0.250790 0.980907
O49   O     O_3   0.334430 0.834430 0.749680 -0.293009
O50   O     O_3   0.665570 0.834430 0.250320 -0.295368
O51   O     O_3   0.834430 0.334430 0.749680 -0.292995
O52   O     O_3   0.165570 0.334430 0.250320 -0.295368
C25   C     C_3   0.479801 0.916353 0.035968 -0.109621
C26   C     C_3   0.520636 0.916189 0.964240 -0.111270
C27   C     C_3   0.979801 0.416353 0.035968 -0.109621
C28   C     C_3   0.020636 0.416189 0.964240 -0.111269
C29   C     C_3   0.431923 0.818957 0.006717 -0.157818
C30   C     C_3   0.568091 0.818420 0.993304 -0.158818
C31   C     C_3   0.931923 0.318957 0.006717 -0.157818
C32   C     C_3   0.068091 0.318420 0.993304 -0.158819
H1    H     H_    0.377212 0.806566 0.017421 0.090254
H2    H     H_    0.622738 0.805364 0.982605 0.090167
H3    H     H_    0.877212 0.306566 0.017421 0.090253
H4    H     H_    0.122738 0.305364 0.982605 0.090167
H5    H     H_    0.464675 0.996801 0.066055 0.112722
H6    H     H_    0.535966 0.996529 0.934279 0.110511
H7    H     H_    0.964675 0.496801 0.066055 0.112722
H8    H     H_    0.035966 0.496529 0.934279 0.110511
C33   C     C_3   0.472749 0.820351 0.935902 0.059681
C34   C     C_3   0.527275 0.820109 0.064120 0.059501
C35   C     C_3   0.972750 0.320351 0.935902 0.059682
C36   C     C_3   0.027275 0.320109 0.064120 0.059501
C37   C     C_3   0.519771 0.723009 0.964314 -0.113053
C38   C     C_3   0.479837 0.723169 0.035534 -0.112955
C39   C     C_3   0.019771 0.223009 0.964314 -0.113053
C40   C     C_3   0.979837 0.223169 0.035534 -0.112955
H9    H     H_    0.535243 0.642086 0.934871 0.120038
H10   H     H_    0.464170 0.642372 0.064872 0.119967
H11   H     H_    0.035243 0.142086 0.934871 0.120037
H12   H     H_    0.964170 0.142372 0.064872 0.119967
C41   C     C_3   0.311490 0.528439 0.043189 -0.236710
C42   C     C_3   0.688480 0.528182 0.956644 -0.236576
C43   C     C_3   0.811490 0.028439 0.043189 -0.236710
C44   C     C_3   0.188480 0.028182 0.956644 -0.236576
H13   H     H_    0.317105 0.434076 0.053299 0.131703
H14   H     H_    0.682809 0.433787 0.946242 0.132191
H15   H     H_    0.817105 0.934076 0.053299 0.131703
H16   H     H_    0.182809 0.933786 0.946242 0.132191
H17   H     H_    0.353056 0.571716 0.073931 0.105368
H18   H     H_    0.646925 0.571389 0.926038 0.104873
H19   H     H_    0.853056 0.071716 0.073931 0.105368
H20   H     H_    0.146925 0.071389 0.926038 0.104872
C45   C     C_3   0.320883 0.553843 0.962628 -0.233211
C46   C     C_3   0.679062 0.553391 0.037258 -0.233717
C47   C     C_3   0.820883 0.053843 0.962628 -0.233211
C48   C     C_3   0.179062 0.053391 0.037258 -0.233717
H21   H     H_    0.365011 0.614346 0.954755 0.137812
H22   H     H_    0.634957 0.613726 0.045283 0.137536
H23   H     H_    0.865011 0.114346 0.954755 0.137812
H24   H     H_    0.134957 0.113726 0.045283 0.137536
H25   H     H_    0.332986 0.470336 0.933718 0.117504
H26   H     H_    0.666924 0.469792 0.065931 0.117486
H27   H     H_    0.832986 0.970336 0.933718 0.117504
H28   H     H_    0.166923 0.969792 0.065931 0.117485
H29   H     H_    0.665233 0.937238 0.047045 0.100915
H30   H     H_    0.334896 0.937597 0.952511 0.101507
H31   H     H_    0.165233 0.437238 0.047045 0.100915
H32   H     H_    0.834896 0.437597 0.952511 0.101507
H33   H     H_    0.709175 0.935972 0.925219 0.109328
H34   H     H_    0.290706 0.935920 0.074292 0.110145
H35   H     H_    0.209175 0.435972 0.925219 0.109329
H36   H     H_    0.790706 0.435920 0.074292 0.110146
C49   C     C_3   0.180260 0.522851 0.026136 -0.205364
C50   C     C_3   0.819769 0.523091 0.973700 -0.206130
C51   C     C_3   0.680260 0.022851 0.026136 -0.205364
C52   C     C_3   0.319769 0.023090 0.973700 -0.206128
C53   C     C_3   0.240764 0.707117 0.057024 -0.258099
C54   C     C_3   0.759336 0.707155 0.943291 -0.258328
C55   C     C_3   0.740764 0.207117 0.057024 -0.258099
C56   C     C_3   0.259336 0.207155 0.943291 -0.258329
C57   C     C_3   0.241106 0.574292 0.070288 0.068010
C58   C     C_3   0.758931 0.574361 0.929706 0.068403
C59   C     C_3   0.741105 0.074292 0.070288 0.068010
C60   C     C_3   0.258931 0.074361 0.929706 0.068402
H37   H     H_    0.195693 0.750529 0.082519 0.128218
H38   H     H_    0.804471 0.750727 0.917973 0.127683
H39   H     H_    0.695693 0.250529 0.082519 0.128218
H40   H     H_    0.304471 0.250727 0.917973 0.127684
H41   H     H_    0.287095 0.746113 0.081214 0.099849
H42   H     H_    0.713069 0.746024 0.919147 0.099006
H43   H     H_    0.787095 0.246113 0.081214 0.099850
H44   H     H_    0.213069 0.246024 0.919147 0.099003
C61   C     C_3   0.254899 0.610163 0.932039 0.055849
C62   C     C_3   0.745069 0.609909 0.067977 0.054900
C63   C     C_3   0.754899 0.110163 0.932039 0.055850
C64   C     C_3   0.245069 0.109909 0.067977 0.054900
C65   C     C_3   0.195431 0.524480 0.945009 -0.256666
C66   C     C_3   0.804532 0.524499 0.054800 -0.256519
C67   C     C_3   0.695431 0.024480 0.945009 -0.256667
C68   C     C_3   0.304532 0.024499 0.054801 -0.256519
C69   C     C_3   0.238620 0.725335 0.974953 -0.222307
C70   C     C_3   0.761383 0.725233 0.025402 -0.222300
C71   C     C_3   0.738620 0.225335 0.974953 -0.222306
C72   C     C_3   0.261383 0.225233 0.025402 -0.222298
H45   H     H_    0.273533 0.794813 0.958589 0.110055
H46   H     H_    0.726444 0.794494 0.041964 0.109829
H47   H     H_    0.773533 0.294813 0.958589 0.110055
H48   H     H_    0.226444 0.294494 0.041964 0.109829
H49   H     H_    0.185653 0.751673 0.961347 0.130215
H50   H     H_    0.814346 0.751771 0.039147 0.130582
H51   H     H_    0.685653 0.251673 0.961347 0.130215
H52   H     H_    0.314346 0.251771 0.039147 0.130582
H53   H     H_    0.633670 0.077544 0.035542 0.138734
H54   H     H_    0.366354 0.078087 0.964509 0.138421
H55   H     H_    0.133670 0.577544 0.035542 0.138734
H56   H     H_    0.866354 0.578087 0.964509 0.138421
H57   H     H_    0.149216 0.553227 0.915451 0.120805
H58   H     H_    0.850768 0.553308 0.084466 0.123584
H59   H     H_    0.649216 0.053227 0.915451 0.120805
H60   H     H_    0.350768 0.053309 0.084466 0.123584
C73   C     C_3   0.499142 0.704067 0.459982 -0.286882
C74   C     C_3   0.500547 0.703514 0.539945 -0.284371
C75   C     C_3   0.999141 0.204065 0.459983 -0.286889
C76   C     C_3   0.000547 0.203512 0.539946 -0.284369
H61   H     H_    0.535062 0.635415 0.441027 0.143326
H62   H     H_    0.464392 0.635119 0.558758 0.142729
H63   H     H_    0.035060 0.135413 0.441028 0.143323
H64   H     H_    0.964389 0.135120 0.558758 0.142729
H65   H     H_    0.449986 0.668593 0.441041 0.129562
H66   H     H_    0.549507 0.666621 0.558484 0.128871
H67   H     H_    0.949985 0.168593 0.441043 0.129557
H68   H     H_    0.049506 0.166618 0.558489 0.128928
H69   H     H_    0.612921 0.857819 0.450523 0.065819
H70   H     H_    0.389254 0.864703 0.550025 0.068669
H71   H     H_    0.112921 0.357811 0.450525 0.065822
H72   H     H_    0.889253 0.364697 0.550021 0.068673
H73   H     H_    0.601485 0.841893 0.574494 0.189554
H74   H     H_    0.401224 0.844735 0.429130 0.169896
H75   H     H_    0.101485 0.341893 0.574495 0.189498
H76   H     H_    0.901224 0.344735 0.429130 0.169900
C77   C     C_3   0.567223 0.899006 0.471469 -0.179399
C78   C     C_3   0.436029 0.904599 0.530182 -0.173755
C79   C     C_3   0.067222 0.399003 0.471469 -0.179391
C80   C     C_3   0.936027 0.404597 0.530181 -0.173754
C81   C     C_3   0.443575 0.898844 0.446840 -0.009883
C82   C     C_3   0.559538 0.894255 0.555169 -0.017988
C83   C     C_3   0.943575 0.398843 0.446839 -0.009882
C84   C     C_3   0.059537 0.394254 0.555169 -0.017983
C85   C     C_3   0.509594 0.832472 0.430400 0.074338
C86   C     C_3   0.491914 0.831931 0.570379 0.073472
C87   C     C_3   0.009594 0.332471 0.430400 0.074336
C88   C     C_3   0.991913 0.331931 0.570379 0.073472
H77   H     H_    0.432952 0.997049 0.548242 0.144846
H78   H     H_    0.573356 0.990823 0.454890 0.152992
H79   H     H_    0.932948 0.497046 0.548242 0.144845
H80   H     H_    0.073357 0.490820 0.454889 0.152993
C89   C     C_3   0.187755 0.681032 0.451783 -0.245390
C90   C     C_3   0.812768 0.680526 0.548191 -0.244361
C91   C     C_3   0.687755 0.181031 0.451784 -0.245395
C92   C     C_3   0.312764 0.180529 0.548192 -0.244365
H81   H     H_    0.134073 0.658934 0.438421 0.125986
H82   H     H_    0.866552 0.658540 0.561245 0.133595
H83   H     H_    0.634073 0.158934 0.438420 0.125988
H84   H     H_    0.366549 0.158556 0.561248 0.133593
H85   H     H_    0.198056 0.768515 0.427712 0.121292
H86   H     H_    0.802395 0.767671 0.572889 0.121022
H87   H     H_    0.698056 0.268516 0.427716 0.121291
H88   H     H_    0.302381 0.267669 0.572892 0.121041
C93   C     C_3   0.191082 0.688823 0.532576 -0.254983
C94   C     C_3   0.809006 0.689285 0.467396 -0.256055
C95   C     C_3   0.691081 0.188812 0.532577 -0.254995
C96   C     C_3   0.309005 0.189288 0.467397 -0.256067
H89   H     H_    0.171465 0.774177 0.551849 0.117966
H90   H     H_    0.829019 0.774542 0.448438 0.115655
H91   H     H_    0.671461 0.274161 0.551853 0.117977
H92   H     H_    0.329018 0.274546 0.448439 0.115653
H93   H     H_    0.152788 0.629163 0.554454 0.189660
H94   H     H_    0.846127 0.628403 0.444763 0.194972
H95   H     H_    0.652788 0.129148 0.554452 0.189657
H96   H     H_    0.346129 0.128410 0.444766 0.194969
H97   H     H_    0.684746 0.965662 0.488452 0.126135
H98   H     H_    0.316490 0.965972 0.510903 0.126302
H99   H     H_    0.184742 0.465663 0.488455 0.126134
H100  H     H_    0.816476 0.465959 0.510914 0.126291
H101  H     H_    0.736806 0.965331 0.594223 0.121075
H102  H     H_    0.267605 0.969151 0.404156 0.132562
H103  H     H_    0.236800 0.465350 0.594229 0.121057
H104  H     H_    0.767597 0.469151 0.404164 0.132555
C97   C     C_3   0.237800 0.481566 0.478009 -0.287777
C98   C     C_3   0.763226 0.481042 0.520832 -0.291092
C99   C     C_3   0.737802 0.981563 0.478005 -0.287771
C100  C     C_3   0.263238 0.981037 0.520826 -0.291116
C101  C     C_3   0.313684 0.635112 0.430482 0.017995
C102  C     C_3   0.687008 0.632150 0.569584 0.019271
C103  C     C_3   0.813684 0.135115 0.430482 0.017990
C104  C     C_3   0.187007 0.132123 0.569575 0.019300
C105  C     C_3   0.241314 0.586169 0.425703 0.093879
C106  C     C_3   0.759429 0.584719 0.573796 0.093098
C107  C     C_3   0.741315 0.086170 0.425702 0.093886
C108  C     C_3   0.259432 0.084709 0.573793 0.093121
H105  H     H_    0.350990 0.560766 0.427991 0.135550
H106  H     H_    0.649878 0.557277 0.571428 0.136399
H107  H     H_    0.850992 0.060771 0.427991 0.135552
H108  H     H_    0.149883 0.057242 0.571409 0.136389
C109  C     C_3   0.262879 0.645557 0.559410 0.039868
C110  C     C_3   0.737442 0.645609 0.440545 0.035376
C111  C     C_3   0.762878 0.145547 0.559411 0.039864
C112  C     C_3   0.237444 0.145603 0.440542 0.035385
C113  C     C_3   0.266486 0.510934 0.551816 -0.244652
C114  C     C_3   0.735484 0.510914 0.446657 -0.248019
C115  C     C_3   0.766489 0.010926 0.551812 -0.244672
C116  C     C_3   0.235492 0.010906 0.446652 -0.248015
C117  C     C_3   0.318363 0.692580 0.506211 -0.242441
C118  C     C_3   0.682115 0.690796 0.494508 -0.243471
C119  C     C_3   0.818360 0.192581 0.506213 -0.242437
C120  C     C_3   0.182114 0.190781 0.494503 -0.243479
H109  H     H_    0.309778 0.784371 0.497212 0.121411
H110  H     H_    0.691460 0.782772 0.504620 0.122487
H111  H     H_    0.809766 0.284370 0.497215 0.121413
H112  H     H_    0.191457 0.282759 0.504618 0.122453
H113  H     H_    0.368035 0.677198 0.529257 0.105178
H114  H     H_    0.632332 0.674028 0.471662 0.106248
H115  H     H_    0.868034 0.177212 0.529259 0.105180
H116  H     H_    0.132332 0.174014 0.471654 0.106257
H117  H     H_    0.261659 0.404899 0.454597 0.118753
H118  H     H_    0.738631 0.404670 0.543631 0.118227
H119  H     H_    0.761660 0.904898 0.454592 0.118760
H120  H     H_    0.238654 0.904654 0.543626 0.118208
H121  H     H_    0.320224 0.479278 0.555782 0.121196
H122  H     H_    0.682304 0.477065 0.441021 0.122543
H123  H     H_    0.820228 0.979275 0.555775 0.121192
H124  H     H_    0.182312 0.977052 0.441017 0.122540
N1    N     N_2   0.435424 0.009406 0.407072 -0.544236
H125  H     H_    0.420705 0.998114 0.354410 0.265845
C121  C     C_3   0.475749 0.115511 0.418244 -0.311410
H126  H     H_    0.446730 0.193297 0.399172 0.129038
H127  H     H_    0.522859 0.113682 0.384961 0.171081
H128  H     H_    0.487083 0.130078 0.475472 0.124411
N2    N     N_2   0.563987 0.009153 0.590369 -0.567734
H129  H     H_    0.527203 0.071501 0.580680 0.250804
C122  C     C_3   0.593402 0.014615 0.661794 -0.292973
H130  H     H_    0.596396 0.107965 0.679594 0.167096
H131  H     H_    0.645375 0.976711 0.661889 0.149543
H132  H     H_    0.562592 0.965938 0.701800 0.171868
N3    N     N_2   0.935425 0.509405 0.407072 -0.544236
H133  H     H_    0.920706 0.498113 0.354410 0.265846
C123  C     C_3   0.975749 0.615510 0.418245 -0.311409
H134  H     H_    0.946730 0.693296 0.399173 0.129039
H135  H     H_    0.022859 0.613682 0.384962 0.171080
H136  H     H_    0.987082 0.630076 0.475473 0.124412
N4    N     N_2   0.063987 0.509154 0.590367 -0.567735
H137  H     H_    0.027201 0.571499 0.580678 0.250807
C124  C     C_3   0.093400 0.514618 0.661793 -0.292992
H138  H     H_    0.096401 0.607969 0.679588 0.167108
H139  H     H_    0.145368 0.476701 0.661892 0.149509
H140  H     H_    0.062585 0.465957 0.701801 0.171870
N5    N     N_2   0.328084 0.718551 0.372510 -0.574291
H141  H     H_    0.291813 0.781671 0.361847 0.250623
C125  C     C_3   0.365472 0.677725 0.309796 -0.293066
H142  H     H_    0.390990 0.754227 0.283747 0.152043
H143  H     H_    0.330009 0.637790 0.270410 0.171395
H144  H     H_    0.405510 0.612850 0.324359 0.153793
N6    N     N_2   0.672681 0.714006 0.628558 -0.575550
H145  H     H_    0.708953 0.777022 0.640140 0.246681
C126  C     C_3   0.634092 0.672427 0.690256 -0.293187
H146  H     H_    0.608182 0.748518 0.716295 0.145931
H147  H     H_    0.668781 0.632318 0.730153 0.173751
H148  H     H_    0.594270 0.607612 0.674513 0.153658
N7    N     N_2   0.828084 0.218556 0.372511 -0.574290
H149  H     H_    0.791814 0.281683 0.361852 0.250620
C127  C     C_3   0.865473 0.177734 0.309796 -0.293074
H150  H     H_    0.890979 0.254240 0.283741 0.152035
H151  H     H_    0.830013 0.137778 0.270416 0.171403
H152  H     H_    0.905520 0.112879 0.324362 0.153799
N8    N     N_2   0.172665 0.213964 0.628550 -0.575554
H153  H     H_    0.208890 0.277067 0.640099 0.246650
C128  C     C_3   0.134102 0.172364 0.690262 -0.293060
H154  H     H_    0.108100 0.248420 0.716242 0.145975
H155  H     H_    0.168829 0.132437 0.730196 0.173700
H156  H     H_    0.094354 0.107387 0.674546 0.153609

loop_
_geom_bond_atom_site_label_1
_geom_bond_atom_site_label_2
_geom_bond_distance
_ccdc_geom_bond_type
C84   N4    1.459040 S    
O4    C12   1.291091 A    
C97   H117  1.076572 S    
O25   C21   1.316566 A    
C74   H66   1.103153 S    
C102  C106  1.517972 S    
C99   H119  1.076560 S    
C79   H80   1.091691 S    
Cr7   O51   2.051707 S    
N5    H141  1.028500 S    
C93   H89   1.099420 S    
C99   C107  1.536727 S    
C62   C70   1.560925 S    
H36   C66   1.100383 S    
C54   C58   1.524889 S    
O39   C19   1.303721 A    
C31   H3    1.095693 S    
C81   C85   1.523825 S    
C91   C107  1.575390 S    
N6    C126  1.449565 S    
C1    O9    1.286939 A    
O44   Cr12  2.094228 S    
C52   H54   1.115155 S    
C3    O11   1.286938 A    
C4    O12   1.288064 A    
C55   H43   1.105802 S    
H34   C68   1.100382 S    
C25   C34   1.528921 S    
C24   C112  1.500872 S    
C4    C57   1.477080 S    
C29   C38   1.534868 S    
O2    C10   1.291091 A    
C103  H107  1.115696 S    
C32   C36   1.537259 S    
C75   C76   1.490323 S    
C76   H68   1.103169 S    
C100  C116  1.526990 S    
O17   Cr9   2.122440 S    
C46   H22   1.110320 S    
C84   C88   1.523053 S    
C103  C119  1.556005 S    
C128  H155  1.108449 S    
O9    Cr5   2.100435 S    
O31   Cr3   1.988130 S    
C101  N5    1.462168 S    
C49   H55   1.115128 S    
O16   Cr8   1.996609 S    
C123  H134  1.109147 S    
C125  H143  1.108588 S    
H72   C80   1.082574 S    
C22   C110  1.500895 S    
C93   H93   1.085670 S    
C117  H109  1.067223 S    
O28   Cr4   2.118285 S    
C53   H37   1.112935 S    
O12   Cr8   2.101532 S    
O22   Cr10  1.974896 S    
C122  H132  1.103024 S    
O15   C7    1.333203 A    
C78   H77   1.100943 S    
O6    C2    1.308151 A    
O46   Cr10  2.001570 S    
H73   C82   1.077369 S    
C56   C60   1.524888 S    
O48   C24   1.337947 A    
C7    C35   1.476003 S    
H35   C65   1.100611 S    
C19   C88   1.481843 S    
C91   H87   1.106105 S    
C70   H46   1.084067 S    
C45   H21   1.110167 S    
C66   H58   1.111261 S    
C96   H92   1.099407 S    
C42   C58   1.553112 S    
H100  C98   1.070141 S    
C46   H26   1.112588 S    
C96   C112  1.568464 S    
C62   C66   1.531903 S    
C25   H5    1.108455 S    
Cr12  O52   2.051500 S    
C26   C33   1.528319 S    
C27   H7    1.108454 S    
C17   O41   1.294054 A    
C43   H15   1.091545 S    
C13   C108  1.459558 S    
C30   C37   1.534398 S    
C19   O43   1.294053 A    
C20   O44   1.296875 A    
H104  C114  1.112349 S    
C117  H113  1.079285 S    
Cr8   O52   2.054554 S    
C56   C72   1.543912 S    
C89   C93   1.509575 S    
O46   C22   1.337951 A    
C28   H8    1.108307 S    
C125  H142  1.110063 S    
C70   H50   1.109500 S    
H31   C49   1.085114 S    
C45   H25   1.112589 S    
C112  C120  1.558049 S    
C43   C59   1.552465 S    
N3    H133  1.032150 S    
C44   C60   1.553112 S    
O27   C23   1.316529 A    
C48   C64   1.552358 S    
O31   C15   1.305164 A    
C78   C86   1.565040 S    
C72   H48   1.084067 S    
H69   C77   1.078928 S    
H101  C115  1.105491 S    
H102  C116  1.112362 S    
O47   Cr11  1.998845 S    
H103  C113  1.105489 S    
O21   C9    1.300501 A    
C92   C96   1.511119 S    
C39   C40   1.534841 S    
H97   C99   1.069259 S    
H98   C100  1.070148 S    
C101  C117  1.555995 S    
C5    O17   1.309092 A    
O24   C12   1.299720 A    
C46   C62   1.552358 S    
O30   C14   1.305679 A    
C83   C87   1.523826 S    
C56   H44   1.105643 S    
O8    Cr4   1.996134 S    
C42   H14   1.091930 S    
O32   Cr4   1.984659 S    
C26   H6    1.108307 S    
C89   H81   1.108667 S    
C79   C84   1.566659 S    
C81   N1    1.465822 S    
C110  C118  1.558073 S    
O11   Cr7   2.100435 S    
C98   H118  1.075784 S    
C43   C47   1.538527 S    
O27   Cr3   2.113746 S    
C41   C45   1.538527 S    
C38   H10   1.108560 S    
C48   H24   1.110320 S    
Cr5   O49   2.051707 S    
C104  H108  1.115977 S    
C124  H139  1.103844 S    
C63   C71   1.560863 S    
C102  N6    1.462218 S    
C61   C69   1.560863 S    
C126  H147  1.108368 S    
C32   C39   1.534400 S    
C53   C69   1.544249 S    
C12   C64   1.488663 S    
O22   C10   1.299720 A    
C55   C59   1.525202 S    
H33   C67   1.100612 S    
C120  H112  1.074027 S    
C2    O10   1.288064 A    
C27   C28   1.551886 S    
N4    C124  1.454670 S    
C1    C60   1.475841 S    
C55   H39   1.112935 S    
Cr2   O50   2.049574 S    
C123  H135  1.106986 S    
C51   C59   1.562601 S    
O5    C1    1.306146 A    
C77   H78   1.091688 S    
O3    C11   1.292362 A    
C76   H64   1.103937 S    
C100  C108  1.534064 S    
C101  H105  1.115698 S    
Cr1   O49   2.049635 S    
C90   H86   1.106746 S    
Cr3   O51   2.049635 S    
C121  H127  1.106982 S    
C93   C109  1.572933 S    
C29   H1    1.095693 S    
C40   H12   1.108560 S    
C78   C81   1.560002 S    
O26   Cr2   2.118285 S    
C97   C105  1.536729 S    
C33   C37   1.534161 S    
C104  N8    1.462188 S    
O29   C13   1.305145 A    
O28   C24   1.316230 A    
C80   H79   1.100944 S    
C53   H41   1.105802 S    
C118  H110  1.074005 S    
C35   C39   1.534160 S    
C54   H38   1.112948 S    
C8    O20   1.309435 A    
C74   C86   1.569164 S    
C47   C63   1.552701 S    
C95   H91   1.099408 S    
H71   C79   1.078929 S    
C14   C107  1.459750 S    
O40   Cr8   1.979182 S    
C23   C111  1.499526 S    
C83   N3    1.465820 S    
O41   Cr9   2.094528 S    
C127  H152  1.109994 S    
C49   C57   1.562601 S    
C69   H45   1.083817 S    
C32   H4    1.095790 S    
O33   Cr5   2.119921 S    
C25   C29   1.546729 S    
C73   C74   1.490317 S    
O35   Cr7   2.119921 S    
C47   H27   1.112589 S    
O29   Cr1   1.988130 S    
O32   C16   1.305681 A    
C82   N2    1.459041 S    
C61   C65   1.531648 S    
C41   H17   1.110542 S    
C80   C83   1.559992 S    
Cr9   O49   2.054197 S    
C64   C68   1.531903 S    
C77   C85   1.559074 S    
C43   H19   1.110542 S    
C18   O42   1.296878 A    
Cr11  O51   2.054197 S    
O26   C22   1.316241 A    
O20   Cr12  2.124553 S    
C11   C63   1.489679 S    
C73   H65   1.101331 S    
C118  H114  1.081597 S    
C9    C61   1.489679 S    
H75   C84   1.077372 S    
C128  H154  1.109648 S    
C15   C106  1.459535 S    
C113  H121  1.113797 S    
C99   C115  1.524789 S    
C16   O36   1.272940 A    
C31   C40   1.534870 S    
C94   H90   1.099410 S    
C71   H51   1.109463 S    
C30   H2    1.095790 S    
C69   H49   1.109463 S    
C80   C88   1.565048 S    
C76   C88   1.569166 S    
H30   C52   1.085790 S    
C122  H131  1.103863 S    
C95   C111  1.572930 S    
C72   H52   1.109500 S    
N8    H153  1.029071 S    
C26   C30   1.547046 S    
C8    C36   1.476010 S    
O8    C4    1.308151 A    
N7    C127  1.449316 S    
C64   C72   1.560924 S    
O42   Cr10  2.094228 S    
N2    H129  1.025970 S    
O18   Cr10  2.124553 S    
O14   C6    1.332305 A    
C75   H63   1.104481 S    
O34   Cr6   2.115663 S    
C55   C71   1.544249 S    
O6    Cr2   1.996134 S    
N5    C125  1.449314 S    
C109  C113  1.532886 S    
O24   Cr12  1.974896 S    
O30   Cr2   1.984659 S    
C51   C67   1.538433 S    
C111  C115  1.532882 S    
O48   Cr12  2.001570 S    
C112  C116  1.530606 S    
C127  H150  1.110064 S    
O37   C17   1.303722 A    
C15   O35   1.270241 A    
C94   H94   1.084607 S    
C111  C119  1.558239 S    
C126  H146  1.109595 S    
C36   C40   1.533469 S    
O43   Cr11  2.094528 S    
O37   Cr5   1.978471 S    
O21   Cr9   1.975303 S    
C42   C46   1.538182 S    
H74   C81   1.082527 S    
C103  N7    1.462164 S    
O39   Cr7   1.978471 S    
C98   C114  1.526978 S    
O45   Cr9   1.998845 S    
N6    H145  1.029149 S    
C13   O33   1.270233 A    
C104  C108  1.517983 S    
C89   C105  1.575383 S    
O13   Cr5   2.000240 S    
O15   Cr7   2.000240 S    
C18   C85   1.484348 S    
C31   C35   1.537337 S    
C54   C70   1.543912 S    
C65   H57   1.111137 S    
O23   C11   1.300501 A    
C120  H116  1.081598 S    
C128  H156  1.110042 S    
C77   C82   1.566662 S    
C50   C58   1.562730 S    
C91   H83   1.108668 S    
C27   C36   1.528921 S    
C115  H123  1.113795 S    
C90   C106  1.576222 S    
C102  C118  1.553279 S    
C125  H144  1.110007 S    
C44   H20   1.110779 S    
C48   H28   1.112589 S    
C123  H136  1.102639 S    
C101  C105  1.522154 S    
O1    Cr1   2.107644 S    
C102  H106  1.115981 S    
O19   Cr11  2.122440 S    
H76   C83   1.082524 S    
N4    H137  1.025966 S    
Cr10  O50   2.051500 S    
C37   C38   1.534842 S    
C90   C94   1.511114 S    
C98   C106  1.534063 S    
O45   C21   1.337581 A    
C94   C110  1.568458 S    
O47   C23   1.337544 A    
C53   C57   1.525202 S    
O13   C5    1.333202 A    
O40   C20   1.301714 A    
C6    O18   1.309435 A    
C54   H42   1.105642 S    
C79   C87   1.559068 S    
C25   C26   1.551887 S    
O36   Cr8   2.115663 S    
C75   C87   1.568957 S    
C2    C59   1.477080 S    
C67   H59   1.111137 S    
C5    C33   1.476003 S    
C3    C58   1.475842 S    
O38   Cr6   1.979182 S    
C73   C85   1.568954 S    
C121  H126  1.109146 S    
C52   C60   1.562731 S    
C124  H138  1.109165 S    
C119  H111  1.067222 S    
C28   C32   1.547047 S    
C100  H120  1.075791 S    
O1    C9    1.292362 A    
N1    H125  1.032151 S    
O7    C3    1.306147 A    
C45   C61   1.552701 S    
C103  C107  1.522153 S    
C47   H23   1.110167 S    
C82   C86   1.523048 S    
O23   Cr11  1.975303 S    
C41   H13   1.091545 S    
C29   C33   1.537336 S    
C92   C108  1.576211 S    
C116  H124  1.113364 S    
O16   C8    1.332305 A    
N3    C123  1.451904 S    
H32   C50   1.085790 S    
C73   H61   1.104483 S    
C7    O19   1.309091 A    
C119  H115  1.079290 S    
Cr4   O52   2.049574 S    
C10   C62   1.488663 S    
C37   H9    1.108746 S    
C16   C105  1.459758 S    
Cr6   O50   2.054554 S    
C114  H122  1.113351 S    
O5    Cr1   1.992111 S    
C91   C95   1.509577 S    
C71   H47   1.083817 S    
C21   C109  1.499539 S    
N2    C122  1.454671 S    
C41   C57   1.552465 S    
O7    Cr3   1.992111 S    
C6    C34   1.476009 S    
C63   C67   1.531647 S    
C92   H84   1.109893 S    
C74   H62   1.103938 S    
N8    C128  1.449569 S    
H99   C97   1.069280 S    
C127  H151  1.108577 S    
C28   C35   1.528318 S    
C95   H95   1.085657 S    
C75   H67   1.101328 S    
C68   H60   1.111261 S    
C17   C86   1.481848 S    
C89   H85   1.106103 S    
O14   Cr6   1.996609 S    
C50   C66   1.538114 S    
C110  C114  1.530599 S    
C124  H140  1.103015 S    
O3    Cr3   2.107644 S    
H29   C51   1.085115 S    
O38   C18   1.301710 A    
C126  H148  1.109968 S    
O25   Cr1   2.113746 S    
C30   C34   1.537258 S    
C44   C48   1.538182 S    
O2    Cr2   2.104391 S    
C96   H96   1.084604 S    
C97   C113  1.524798 S    
C14   O34   1.272941 A    
H70   C78   1.082575 S    
C20   C87   1.484347 S    
C92   H88   1.106749 S    
C104  C120  1.553270 S    
N1    C121  1.451907 S    
C49   C65   1.538433 S    
O10   Cr6   2.101532 S    
C90   H82   1.109891 S    
C122  H130  1.109181 S    
O4    Cr4   2.104391 S    
C50   H56   1.115155 S    
C52   C68   1.538114 S    
C51   H53   1.115127 S    
C56   H40   1.112949 S    
C27   C31   1.546731 S    
C34   C38   1.533470 S    
C121  H128  1.102638 S    
C39   H11   1.108746 S    
C42   H18   1.110781 S    
N7    H149  1.028518 S    
C44   H16   1.091930 S    
C109  C117  1.558230 S    
