data_mof_unit_381.cif
_audit_creation_date              2012-12-10T17:19:51-0500
_audit_creation_method            fapswitch 2.2
_symmetry_space_group_name_H-M    P1
_symmetry_Int_Tables_number       1
_space_group_crystal_system       monoclinic
_cell_length_a                    21.559221
_cell_length_b                    21.692288
_cell_length_c                    23.496785
_cell_angle_alpha                 90.0
_cell_angle_beta                  90.0
_cell_angle_gamma                 86.721924
_cell_volume                      10970.7339113

loop_
_atom_site_label
_atom_site_type_symbol
_atom_type_description
_atom_site_fract_x
_atom_site_fract_y
_atom_site_fract_z
_atom_type_partial_charge
C1    C     C_R   0.380084 0.002068 0.491968 0.980059
C2    C     C_R   0.034897 0.280184 0.455926 -0.086773
C3    C     C_R   0.333970 0.221609 0.960822 0.006524
C4    C     C_R   0.221487 0.333743 0.032401 0.005836
C5    C     C_R   0.369946 0.790261 0.111703 0.011973
C6    C     C_R   0.778513 0.666257 0.032401 0.005836
C7    C     C_R   0.630054 0.209739 0.111703 0.011973
C8    C     C_R   0.228627 0.851638 0.413143 -0.311838
C9    C     C_R   0.118621 0.214894 0.384069 -0.315663
C10   C     C_R   0.771372 0.148362 0.413144 -0.311838
C11   C     C_R   0.881379 0.785106 0.384069 -0.315663
C12   C     C_R   0.789974 0.837128 0.535421 -0.286768
C13   C     C_R   0.714993 0.043922 0.453372 -0.062702
C14   C     C_R   0.897371 0.233136 0.624647 -0.351991
C15   C     C_R   0.210026 0.162872 0.535421 -0.286768
C16   C     C_R   0.102629 0.766864 0.624647 -0.351991
C17   C     C_R   0.730799 0.353754 0.910935 -0.320728
C18   C     C_R   0.655979 0.721403 0.935727 -0.301899
C19   C     C_R   0.269201 0.646246 0.910935 -0.320729
C20   C     C_R   0.344021 0.278596 0.935727 -0.301899
C21   C     C_R   0.278340 0.343211 0.058708 -0.304686
C22   C     C_R   0.359442 0.729480 0.096794 -0.321335
C23   C     C_R   0.721660 0.656789 0.058708 -0.304686
C24   C     C_R   0.965103 0.719816 0.455926 -0.086773
C25   C     C_R   0.640559 0.270520 0.096794 -0.321336
C26   C     C_R   0.194372 0.894701 0.447059 0.443687
C27   C     C_R   0.089257 0.184066 0.428162 0.430132
C28   C     C_R   0.805628 0.105299 0.447059 0.443687
C29   C     C_R   0.910743 0.815933 0.428162 0.430132
C30   C     C_R   0.811482 0.896545 0.542385 0.470404
C31   C     C_R   0.920720 0.197784 0.578456 0.459391
C32   C     C_R   0.188518 0.103454 0.542386 0.470403
C33   C     C_R   0.079280 0.802216 0.578456 0.459391
C34   C     C_R   0.694107 0.398487 0.940934 0.444869
C35   C     C_R   0.722905 0.939103 0.489744 -0.086619
C36   C     C_R   0.603640 0.688375 0.949604 0.423130
C37   C     C_R   0.305893 0.601513 0.940934 0.444869
C38   C     C_R   0.396360 0.311625 0.949604 0.423130
C39   C     C_R   0.311238 0.396110 0.047223 0.424408
C40   C     C_R   0.400893 0.694080 0.062086 0.442598
C41   C     C_R   0.688762 0.603889 0.047223 0.424409
C42   C     C_R   0.599107 0.305920 0.062086 0.442598
C43   C     C_R   0.221882 0.949119 0.466610 -0.078415
C44   C     C_R   0.042615 0.215994 0.461776 -0.061604
C45   C     C_R   0.778118 0.050881 0.466610 -0.078415
C46   C     C_R   0.978924 0.284085 0.547848 -0.079105
C47   C     C_R   0.957385 0.784006 0.461776 -0.061605
C48   C     C_R   0.782186 0.946987 0.512021 -0.081332
C49   C     C_R   0.966869 0.221816 0.542077 -0.061086
C50   C     C_R   0.217814 0.053013 0.512021 -0.081332
C51   C     C_R   0.033131 0.778184 0.542077 -0.061085
C52   C     C_R   0.721322 0.452113 0.963725 -0.076580
C53   C     C_R   0.554634 0.717022 0.983645 -0.082958
C54   C     C_R   0.278678 0.547887 0.963725 -0.076579
C55   C     C_R   0.445366 0.282978 0.983645 -0.082958
C56   C     C_R   0.282750 0.445554 0.013927 -0.084795
C57   C     C_R   0.277095 0.060896 0.489744 -0.086619
C58   C     C_R   0.453834 0.721125 0.037377 -0.075074
C59   C     C_R   0.717250 0.554446 0.013927 -0.084795
C60   C     C_R   0.546166 0.278874 0.037377 -0.075074
C61   C     C_3   0.273417 0.238661 0.480202 -0.419744
C62   C     C_3   0.223584 0.289672 0.495541 -0.322561
C63   C     C_3   0.236516 0.350705 0.466792 -0.866360
C64   C     C_3   0.893635 0.325903 0.688462 -0.430054
C65   C     C_3   0.856813 0.385406 0.670416 -0.316410
C66   C     C_3   0.830431 0.420947 0.721843 -0.880924
C67   C     C_3   0.726583 0.761339 0.480202 -0.419744
C68   C     C_R   0.021076 0.715914 0.547848 -0.079105
C69   C     C_3   0.776416 0.710328 0.495541 -0.322561
C70   C     C_3   0.763483 0.649295 0.466792 -0.866361
C71   C     C_3   0.106364 0.674097 0.688462 -0.430053
C72   C     C_3   0.143186 0.614594 0.670416 -0.316410
C73   C     C_3   0.169569 0.579052 0.721843 -0.880925
C74   C     C_3   0.675552 0.184266 0.355632 -0.414560
C75   C     C_3   0.707403 0.244057 0.341503 -0.346024
C76   C     C_3   0.665611 0.286838 0.304532 -0.878746
C77   C     C_3   0.133642 0.310184 0.322929 -0.402173
C78   C     C_3   0.193198 0.277817 0.298582 -0.350009
C79   C     C_R   0.784967 0.458578 0.952740 -0.064937
C80   C     C_3   0.224990 0.319710 0.256791 -0.880583
C81   C     C_3   0.324448 0.815734 0.355631 -0.414558
C82   C     C_3   0.292597 0.755943 0.341503 -0.346024
C83   C     C_3   0.334389 0.713162 0.304532 -0.878745
C84   C     C_3   0.866358 0.689815 0.322929 -0.402172
C85   C     C_3   0.806802 0.722183 0.298582 -0.350009
C86   C     C_3   0.775010 0.680290 0.256791 -0.880584
C87   C     C_3   0.817551 0.720325 0.047766 -0.413218
C88   C     C_3   0.794180 0.759854 0.098532 -0.347231
C89   C     C_3   0.838880 0.809768 0.112496 -0.889332
C90   C     C_R   0.561931 0.777886 0.001605 -0.074568
C91   C     C_3   0.325899 0.827337 0.151520 -0.407410
C92   C     C_3   0.262741 0.800136 0.163048 -0.351965
C93   C     C_3   0.220903 0.844275 0.198655 -0.877013
C94   C     C_3   0.182449 0.279675 0.047766 -0.413217
C95   C     C_3   0.205820 0.240146 0.098532 -0.347230
C96   C     C_3   0.161120 0.190232 0.112496 -0.889332
C97   C     C_3   0.674101 0.172662 0.151520 -0.407409
C98   C     C_3   0.737259 0.199863 0.163048 -0.351965
C99   C     C_3   0.779097 0.155725 0.198654 -0.877013
C100  C     C_3   0.167583 0.686729 0.865052 -0.412566
C101  C     C_R   0.215033 0.541422 0.952740 -0.064937
C102  C     C_3   0.193877 0.751039 0.861249 -0.347857
C103  C     C_3   0.146750 0.797848 0.834800 -0.883033
C104  C     C_3   0.720146 0.816843 0.943829 -0.414690
C105  C     C_3   0.758864 0.792777 0.892698 -0.345029
C106  C     C_3   0.809550 0.836439 0.877971 -0.883588
C107  C     C_3   0.832417 0.313271 0.865052 -0.412565
C108  C     C_3   0.806123 0.248961 0.861249 -0.347857
C109  C     C_3   0.853250 0.202152 0.834800 -0.883034
C110  C     C_3   0.279854 0.183157 0.943829 -0.414690
C111  C     C_3   0.241136 0.207222 0.892698 -0.345029
C112  C     C_R   0.001690 0.379946 0.499760 1.120984
C113  C     C_R   0.438069 0.222114 0.001605 -0.074568
C114  C     C_3   0.190450 0.163561 0.877971 -0.883588
C115  C     C_R   0.222083 0.438479 0.994622 -0.074302
C116  C     C_R   0.460807 0.784448 0.048023 -0.063772
C117  C     C_R   0.777917 0.561521 0.994622 -0.074302
C118  C     C_R   0.539193 0.215552 0.048023 -0.063772
C119  C     C_R   0.188821 0.997258 0.498507 -0.136231
C120  C     C_R   0.002739 0.186801 0.500900 -0.167754
C121  C     C_R   0.811179 0.002742 0.498507 -0.136231
C122  C     C_R   0.997261 0.813199 0.500900 -0.167754
C123  C     C_R   0.688083 0.499529 0.996932 -0.157881
C124  C     C_R   0.619916 0.997932 0.491968 0.980057
C125  C     C_R   0.500183 0.687872 0.002771 -0.160186
C126  C     C_R   0.311917 0.500471 0.996932 -0.157881
C127  C     C_R   0.499817 0.312128 0.002771 -0.160186
C128  C     C_R   0.313900 0.007482 0.475448 -0.057668
C129  C     C_R   0.005747 0.313795 0.501164 -0.121507
C130  C     C_R   0.686100 0.992518 0.475448 -0.057668
C131  C     C_R   0.994253 0.686205 0.501164 -0.121507
C132  C     C_R   0.813832 0.508657 0.976995 -0.070486
C133  C     C_R   0.509341 0.813475 0.020981 -0.072106
C134  C     C_R   0.186168 0.491343 0.976995 -0.070486
C135  C     C_R   0.998310 0.620054 0.499760 1.120984
C136  C     C_R   0.490659 0.186525 0.020981 -0.072106
C137  C     C_R   0.000369 0.120536 0.500151 1.122149
C138  C     C_R   0.878849 0.001243 0.500013 1.133121
C139  C     C_R   0.999631 0.879464 0.500151 1.122149
C140  C     C_R   0.121151 0.998757 0.500013 1.133121
C141  C     C_R   0.499947 0.620896 0.000235 1.127283
C142  C     C_R   0.379045 0.500439 0.999730 1.126892
C143  C     C_R   0.500053 0.379104 0.000235 1.127282
C144  C     C_R   0.620955 0.499561 0.999730 1.126893
C145  C     C_R   0.500000 0.000000 0.390699 1.012736
C146  C     C_R   0.880019 0.502226 0.992727 0.973040
C147  C     C_R   0.000000 0.500000 0.390594 1.050806
C148  C     C_R   0.500000 0.000000 0.609289 0.896787
C149  C     C_R   0.000000 0.500000 0.609409 1.051070
C150  C     C_R   0.000000 0.500000 0.890697 1.019323
C151  C     C_R   0.500000 1.000000 0.890605 0.891476
C152  C     C_R   0.000000 0.500000 0.109289 0.890945
C153  C     C_R   0.500000 0.000000 0.109408 1.027735
C154  C     C_1   0.500000 0.000000 0.330491 -0.143861
C155  C     C_1   0.000000 0.500000 0.330359 -0.197247
C156  C     C_1   0.500000 0.000000 0.669506 -0.181049
C157  C     C_R   0.502352 0.879737 0.006397 0.977761
C158  C     C_1   0.000000 0.500000 0.669662 -0.192898
C159  C     C_1   0.000000 0.500000 0.830488 -0.157954
C160  C     C_1   0.500000 0.000000 0.830391 -0.183812
C161  C     C_1   0.000000 0.500000 0.169503 -0.187177
C162  C     C_1   0.500000 0.000000 0.169623 -0.161244
C163  C     C_1   0.500000 0.000000 0.279692 0.003100
C164  C     C_1   0.000000 0.500000 0.279567 -0.026620
C165  C     C_1   0.500000 0.000000 0.720311 0.003273
C166  C     C_1   0.000000 0.500000 0.720449 -0.017559
C167  C     C_1   0.000000 0.500000 0.779697 -0.014643
C168  C     C_R   0.119980 0.497774 0.992727 0.973039
C169  C     C_1   0.500000 0.000000 0.779587 0.001869
C170  C     C_1   0.000000 0.500000 0.220305 -0.000406
C171  C     C_1   0.500000 0.000000 0.220421 -0.004817
C172  C     C_R   0.316963 0.915450 0.414295 0.430046
C173  C     C_R   0.057388 0.308636 0.405864 0.394008
C174  C     C_R   0.683037 0.084550 0.414295 0.430046
C175  C     C_R   0.942612 0.691364 0.405864 0.394008
C176  C     C_R   0.704165 0.878627 0.478071 0.431910
C177  C     C_R   0.963360 0.315180 0.599609 0.409777
C178  C     C_R   0.295835 0.121373 0.478071 0.431910
C179  C     C_R   0.497648 0.120263 0.006397 0.977761
C180  C     C_R   0.036639 0.684820 0.599609 0.409777
C181  C     C_R   0.818219 0.417814 0.914621 0.430326
C182  C     C_R   0.621705 0.801843 0.000484 0.432711
C183  C     C_R   0.181781 0.582186 0.914621 0.430327
C184  C     C_R   0.378295 0.198157 0.000484 0.432711
C185  C     C_R   0.198209 0.378997 0.993716 0.434844
C186  C     C_R   0.423127 0.816842 0.089255 0.426073
C187  C     C_R   0.801791 0.621003 0.993716 0.434845
C188  C     C_R   0.576873 0.183158 0.089255 0.426073
C189  C     C_R   0.289155 0.861437 0.395175 0.010670
C190  C     C_R   0.285007 0.956078 0.453372 -0.062701
C191  C     C_R   0.102210 0.276550 0.371136 0.025073
C192  C     C_R   0.710845 0.138564 0.395176 0.010671
C193  C     C_R   0.897790 0.723450 0.371136 0.025073
C194  C     C_R   0.740329 0.826578 0.498837 0.004071
C195  C     C_R   0.919731 0.290609 0.637112 0.035536
C196  C     C_R   0.259671 0.173422 0.498837 0.004070
C197  C     C_R   0.080269 0.709391 0.637112 0.035536
C198  C     C_R   0.792735 0.362224 0.897423 0.011485
C199  C     C_R   0.666030 0.778391 0.960822 0.006524
C200  C     C_R   0.207265 0.637776 0.897424 0.011486
H1    H     H_    0.206178 0.810897 0.399620 0.147624
H2    H     H_    0.689826 0.700668 0.906588 0.156349
H3    H     H_    0.683536 0.126124 0.132439 0.217692
H4    H     H_    0.134049 0.783089 0.791275 0.256309
H5    H     H_    0.104173 0.802685 0.861425 0.262060
H6    H     H_    0.167250 0.843554 0.831948 0.252564
H7    H     H_    0.205913 0.767330 0.904520 0.229410
H8    H     H_    0.236221 0.748852 0.834175 0.221076
H9    H     H_    0.159757 0.670083 0.821114 0.194366
H10   H     H_    0.121741 0.692201 0.886782 0.216891
H11   H     H_    0.788627 0.882773 0.866539 0.264900
H12   H     H_    0.841475 0.840871 0.914678 0.255291
H13   H     H_    0.290722 0.687175 0.896491 0.148356
H14   H     H_    0.836842 0.817828 0.841090 0.256816
H15   H     H_    0.781580 0.746885 0.902800 0.227897
H16   H     H_    0.728287 0.788454 0.854973 0.232562
H17   H     H_    0.700591 0.863977 0.933078 0.210515
H18   H     H_    0.751698 0.821444 0.980505 0.191101
H19   H     H_    0.865951 0.216911 0.791275 0.256309
H20   H     H_    0.895827 0.197315 0.861425 0.262060
H21   H     H_    0.832750 0.156445 0.831948 0.252564
H22   H     H_    0.794087 0.232670 0.904519 0.229410
H23   H     H_    0.763779 0.251148 0.834175 0.221076
H24   H     H_    0.310174 0.299332 0.906588 0.156349
H25   H     H_    0.840243 0.329917 0.821114 0.194366
H26   H     H_    0.878259 0.307799 0.886782 0.216891
H27   H     H_    0.211372 0.117227 0.866539 0.264901
H28   H     H_    0.158525 0.159128 0.914678 0.255292
H29   H     H_    0.163158 0.182172 0.841090 0.256817
H30   H     H_    0.218419 0.253115 0.902800 0.227897
H31   H     H_    0.271713 0.211546 0.854973 0.232561
H32   H     H_    0.299409 0.136023 0.933078 0.210515
H33   H     H_    0.248302 0.178556 0.980505 0.191100
H34   H     H_    0.389305 0.904835 0.362750 0.325606
H35   H     H_    0.298870 0.308764 0.087255 0.157434
H36   H     H_    0.036920 0.372655 0.349485 0.319741
H37   H     H_    0.610694 0.095166 0.362752 0.325607
H38   H     H_    0.963080 0.627345 0.349485 0.319741
H39   H     H_    0.638447 0.831538 0.445006 0.320466
H40   H     H_    0.994676 0.372107 0.655263 0.327994
H41   H     H_    0.361553 0.168462 0.445006 0.320467
H42   H     H_    0.005323 0.627894 0.655263 0.327994
H43   H     H_    0.885635 0.411824 0.858202 0.321370
H44   H     H_    0.679698 0.855015 0.038975 0.316070
H45   H     H_    0.114365 0.588176 0.858202 0.321370
H46   H     H_    0.319593 0.707710 0.113695 0.147730
H47   H     H_    0.320302 0.144985 0.038975 0.316070
H48   H     H_    0.145920 0.322424 0.952609 0.315555
H49   H     H_    0.422870 0.883267 0.146247 0.322655
H50   H     H_    0.854080 0.677576 0.952609 0.315555
H51   H     H_    0.577130 0.116733 0.146247 0.322655
H52   H     H_    0.122252 0.843896 0.444251 0.326678
H53   H     H_    0.142559 0.109547 0.414591 0.328099
H54   H     H_    0.877748 0.156104 0.444252 0.326678
H55   H     H_    0.857441 0.890453 0.414591 0.328099
H56   H     H_    0.875025 0.865655 0.596225 0.325369
H57   H     H_    0.701130 0.691236 0.087255 0.157434
H58   H     H_    0.863926 0.133021 0.595733 0.330239
H59   H     H_    0.124975 0.134345 0.596225 0.325369
H60   H     H_    0.136074 0.866978 0.595733 0.330239
H61   H     H_    0.620748 0.350632 0.928709 0.325969
H62   H     H_    0.638420 0.616815 0.907030 0.328374
H63   H     H_    0.379252 0.649368 0.928709 0.325969
H64   H     H_    0.361579 0.383185 0.907030 0.328374
H65   H     H_    0.382150 0.361522 0.091200 0.328035
H66   H     H_    0.351010 0.622040 0.072725 0.325044
H67   H     H_    0.617850 0.638478 0.091200 0.328035
H68   H     H_    0.680407 0.292290 0.113695 0.147730
H69   H     H_    0.648990 0.377960 0.072725 0.325044
H70   H     H_    0.282464 0.366241 0.480293 0.255709
H71   H     H_    0.235893 0.345507 0.419771 0.260727
H72   H     H_    0.200039 0.386471 0.479049 0.257834
H73   H     H_    0.154007 0.189569 0.359608 0.153912
H74   H     H_    0.177103 0.276057 0.481533 0.237241
H75   H     H_    0.222872 0.297037 0.542353 0.220278
H76   H     H_    0.318498 0.250741 0.498908 0.190007
H77   H     H_    0.278035 0.238401 0.433052 0.212418
H78   H     H_    0.796531 0.393261 0.744668 0.259008
H79   H     H_    0.868393 0.432335 0.751323 0.266322
H80   H     H_    0.806116 0.464681 0.707422 0.259263
H81   H     H_    0.887056 0.415962 0.646482 0.257425
H82   H     H_    0.817868 0.373690 0.642113 0.223078
H83   H     H_    0.861874 0.297121 0.712870 0.203121
H84   H     H_    0.793822 0.189103 0.399621 0.147624
H85   H     H_    0.931562 0.336304 0.718332 0.191818
H86   H     H_    0.717536 0.633759 0.480293 0.255709
H87   H     H_    0.764107 0.654493 0.419771 0.260727
H88   H     H_    0.799960 0.613529 0.479049 0.257834
H89   H     H_    0.822897 0.723943 0.481533 0.237240
H90   H     H_    0.777128 0.702963 0.542353 0.220278
H91   H     H_    0.681502 0.749259 0.498908 0.190007
H92   H     H_    0.721965 0.761599 0.433052 0.212418
H93   H     H_    0.203469 0.606739 0.744668 0.259008
H94   H     H_    0.131607 0.567665 0.751324 0.266322
H95   H     H_    0.845993 0.810431 0.359608 0.153912
H96   H     H_    0.193883 0.535319 0.707422 0.259263
H97   H     H_    0.112944 0.584038 0.646482 0.257426
H98   H     H_    0.182132 0.626310 0.642113 0.223078
H99   H     H_    0.138126 0.702879 0.712870 0.203121
H100  H     H_    0.068438 0.663696 0.718332 0.191818
H101  H     H_    0.652933 0.263113 0.264667 0.264520
H102  H     H_    0.622521 0.301501 0.327976 0.263060
H103  H     H_    0.690490 0.328574 0.293270 0.250279
H104  H     H_    0.717987 0.268905 0.381413 0.227970
H105  H     H_    0.751273 0.232865 0.317857 0.226197
H106  H     H_    0.814527 0.799034 0.556864 0.144772
H107  H     H_    0.666823 0.160504 0.314711 0.194117
H108  H     H_    0.630076 0.197581 0.375833 0.208820
H109  H     H_    0.192517 0.334606 0.222084 0.261769
H110  H     H_    0.240707 0.361177 0.279116 0.263192
H111  H     H_    0.266140 0.294318 0.237822 0.252371
H112  H     H_    0.226260 0.265426 0.333615 0.227409
H113  H     H_    0.181543 0.235181 0.275630 0.226433
H114  H     H_    0.099810 0.317880 0.287577 0.194130
H115  H     H_    0.146009 0.356033 0.339297 0.221819
H116  H     H_    0.347067 0.736886 0.264667 0.264520
H117  H     H_    0.861974 0.215042 0.651684 0.149981
H118  H     H_    0.377480 0.698499 0.327976 0.263060
H119  H     H_    0.309511 0.671426 0.293271 0.250279
H120  H     H_    0.282014 0.731095 0.381413 0.227970
H121  H     H_    0.248727 0.767134 0.317858 0.226197
H122  H     H_    0.333176 0.839496 0.314710 0.194115
H123  H     H_    0.369925 0.802420 0.375833 0.208821
H124  H     H_    0.807483 0.665394 0.222084 0.261769
H125  H     H_    0.759293 0.638823 0.279116 0.263192
H126  H     H_    0.733860 0.705681 0.237822 0.252371
H127  H     H_    0.773740 0.734573 0.333615 0.227409
H128  H     H_    0.185473 0.200966 0.556865 0.144772
H129  H     H_    0.818457 0.764819 0.275630 0.226433
H130  H     H_    0.900190 0.682120 0.287577 0.194130
H131  H     H_    0.853991 0.643967 0.339297 0.221819
H132  H     H_    0.885281 0.788498 0.124007 0.262919
H133  H     H_    0.843623 0.840916 0.075407 0.257027
H134  H     H_    0.820665 0.837569 0.149165 0.255693
H135  H     H_    0.748165 0.782762 0.088474 0.232265
H136  H     H_    0.789690 0.730130 0.136604 0.232977
H137  H     H_    0.865103 0.701019 0.058230 0.210974
H138  H     H_    0.821699 0.750838 0.010420 0.190854
H139  H     H_    0.138026 0.784958 0.651684 0.149981
H140  H     H_    0.243524 0.854184 0.239864 0.266104
H141  H     H_    0.210883 0.888283 0.175367 0.262412
H142  H     H_    0.176294 0.822927 0.207439 0.249133
H143  H     H_    0.238995 0.791372 0.122075 0.228057
H144  H     H_    0.269558 0.756055 0.186904 0.224791
H145  H     H_    0.349619 0.832980 0.193062 0.189811
H146  H     H_    0.316464 0.873875 0.132439 0.217692
H147  H     H_    0.114719 0.211501 0.124007 0.262919
H148  H     H_    0.156377 0.159084 0.075407 0.257027
H149  H     H_    0.179335 0.162431 0.149165 0.255693
H150  H     H_    0.709278 0.312825 0.896491 0.148356
H151  H     H_    0.251835 0.217238 0.088474 0.232265
H152  H     H_    0.210310 0.269870 0.136604 0.232977
H153  H     H_    0.134897 0.298981 0.058230 0.210974
H154  H     H_    0.178301 0.249162 0.010420 0.190853
H155  H     H_    0.756476 0.145816 0.239864 0.266104
H156  H     H_    0.789117 0.111717 0.175367 0.262412
H157  H     H_    0.823706 0.177073 0.207439 0.249133
H158  H     H_    0.761006 0.208628 0.122075 0.228057
H159  H     H_    0.730442 0.243945 0.186904 0.224792
H160  H     H_    0.650381 0.167020 0.193062 0.189811
O1    O     O_R   0.408370 0.051730 0.500010 -0.598610
O2    O     O_R   0.448270 0.908370 0.000010 -0.609977
O3    O     O_R   0.091630 0.448270 0.000010 -0.589472
O4    O     O_R   0.551730 0.091630 0.000010 -0.609977
O5    O     O_R   0.091630 0.551730 0.999990 -0.608103
O6    O     O_R   0.551730 0.908370 0.999990 -0.587373
O7    O     O_R   0.908370 0.448270 0.999990 -0.608103
O8    O     O_R   0.448270 0.091630 0.999990 -0.587373
O9    O     O_R   0.499980 0.051730 0.417240 -0.595685
O10   O     O_R   0.948270 0.499980 0.417240 -0.610387
O11   O     O_R   0.500020 0.948270 0.417240 -0.595683
O12   O     O_R   0.948270 0.408370 0.500010 -0.634229
O13   O     O_R   0.051730 0.500020 0.417240 -0.610388
O14   O     O_R   0.500020 0.051730 0.582760 -0.620704
O15   O     O_R   0.051730 0.499980 0.582760 -0.621983
O16   O     O_R   0.499980 0.948270 0.582760 -0.620704
O17   O     O_R   0.948270 0.500020 0.582760 -0.621983
O18   O     O_R   0.999980 0.551730 0.917240 -0.590526
O19   O     O_R   0.448270 0.999980 0.917240 -0.625683
O20   O     O_R   0.000020 0.448270 0.917240 -0.590526
O21   O     O_R   0.551730 0.000020 0.917240 -0.625684
O22   O     O_R   0.000020 0.551730 0.082760 -0.624856
O23   O     O_R   0.591630 0.948270 0.500010 -0.598610
O24   O     O_R   0.551730 0.999980 0.082760 -0.591246
O25   O     O_R   0.999980 0.448270 0.082760 -0.624856
O26   O     O_R   0.448270 0.000020 0.082760 -0.591245
O27   O     O_R   0.999980 0.091600 0.546760 -0.591380
O28   O     O_R   0.908400 0.999980 0.546760 -0.566741
O29   O     O_R   0.000020 0.908400 0.546760 -0.591380
O30   O     O_R   0.091600 0.000020 0.546760 -0.566741
O31   O     O_R   0.000020 0.091600 0.453240 -0.597513
O32   O     O_R   0.091600 0.999980 0.453240 -0.606353
O33   O     O_R   0.999980 0.908400 0.453240 -0.597512
O34   O     O_R   0.051730 0.591630 0.500010 -0.634229
O35   O     O_R   0.908400 0.000020 0.453240 -0.606352
O36   O     O_R   0.499980 0.591600 0.046760 -0.589445
O37   O     O_R   0.408400 0.499980 0.046760 -0.570179
O38   O     O_R   0.500020 0.408400 0.046760 -0.589444
O39   O     O_R   0.591600 0.500020 0.046760 -0.570180
O40   O     O_R   0.500020 0.591600 0.953240 -0.566903
O41   O     O_R   0.591600 0.499980 0.953240 -0.588080
O42   O     O_R   0.499980 0.408400 0.953240 -0.566903
O43   O     O_R   0.408400 0.500020 0.953240 -0.588079
O44   O     O_3   0.372824 0.933413 0.392412 -0.782182
O45   O     O_R   0.591630 0.051730 0.499990 -0.607938
O46   O     O_3   0.033344 0.366725 0.391030 -0.809847
O47   O     O_3   0.627176 0.066587 0.392412 -0.782182
O48   O     O_3   0.966656 0.633275 0.391030 -0.809847
O49   O     O_3   0.656092 0.872234 0.439880 -0.748852
O50   O     O_3   0.994508 0.366863 0.613517 -0.818179
O51   O     O_3   0.343908 0.127766 0.439880 -0.748852
O52   O     O_3   0.005492 0.633137 0.613517 -0.818179
O53   O     O_3   0.873804 0.435995 0.892519 -0.783572
O54   O     O_3   0.636075 0.844039 0.042097 -0.750009
O55   O     O_3   0.126196 0.564005 0.892519 -0.783573
O56   O     O_R   0.051730 0.408370 0.499990 -0.605823
O57   O     O_3   0.363925 0.155961 0.042097 -0.750009
O58   O     O_3   0.155135 0.366435 0.952095 -0.751067
O59   O     O_3   0.442512 0.872555 0.109326 -0.785519
O60   O     O_3   0.844865 0.633564 0.952095 -0.751067
O61   O     O_3   0.557488 0.127445 0.109326 -0.785519
O62   O     O_3   0.134146 0.883281 0.461433 -0.748937
O63   O     O_3   0.109742 0.124551 0.441633 -0.784823
O64   O     O_3   0.865854 0.116719 0.461433 -0.748937
O65   O     O_3   0.890258 0.875449 0.441633 -0.784823
O66   O     O_3   0.859632 0.905651 0.579543 -0.752645
O67   O     O_R   0.408370 0.948270 0.499990 -0.607937
O68   O     O_3   0.895409 0.142201 0.566625 -0.731300
O69   O     O_3   0.140368 0.094348 0.579543 -0.752645
O70   O     O_3   0.104591 0.857799 0.566625 -0.731299
O71   O     O_3   0.631852 0.389315 0.947716 -0.741082
O72   O     O_3   0.599551 0.630047 0.927295 -0.760346
O73   O     O_3   0.368148 0.610685 0.947716 -0.741082
O74   O     O_3   0.400449 0.369953 0.927295 -0.760346
O75   O     O_3   0.368928 0.400559 0.071553 -0.760624
O76   O     O_3   0.389098 0.633213 0.052405 -0.743873
O77   O     O_3   0.631072 0.599441 0.071552 -0.760624
O78   O     O_R   0.948270 0.591630 0.499990 -0.605823
O79   O     O_3   0.610902 0.366787 0.052405 -0.743873
O80   O     O_R   0.908370 0.551730 0.000010 -0.589472
Zn1   Zn    Zn3+2 0.500000 0.069080 0.500000 0.990168
Zn2   Zn    Zn3+2 0.000000 0.000000 0.437580 1.026264
Zn3   Zn    Zn3+2 0.500000 0.500000 0.062420 1.068840
Zn4   Zn    Zn3+2 0.500000 0.500000 0.937580 1.073108
Zn5   Zn    Zn3+2 0.930920 0.500000 0.500000 0.978963
Zn6   Zn    Zn3+2 0.500000 0.930920 0.500000 0.990169
Zn7   Zn    Zn3+2 0.069080 0.500000 0.500000 0.978963
Zn8   Zn    Zn3+2 0.000000 0.569080 0.000000 0.989968
Zn9   Zn    Zn3+2 0.430920 0.000000 0.000000 0.994984
Zn10  Zn    Zn3+2 0.000000 0.430920 0.000000 0.989969
Zn11  Zn    Zn3+2 0.569080 0.000000 0.000000 0.994984
Zn12  Zn    Zn3+2 0.000000 0.000000 0.562420 1.070734

loop_
_geom_bond_atom_site_label_1
_geom_bond_atom_site_label_2
_ccdc_geom_bond_type
C150  O20   A    
C105  H15   S    
C8    C26   A    
O24   Zn11  S    
C7    C97   S    
C14   C195  A    
C46   C129  A    
C76   H102  S    
C109  H21   S    
C15   C32   A    
C149  O15   A    
O45   Zn1   S    
C158  C166  T    
C19   C200  A    
C186  O59   S    
C63   H70   S    
C122  C139  S    
C36   O72   S    
C57   C178  A    
C49   C120  A    
O5    Zn8   S    
C10   C28   A    
C107  H26   S    
C67   H91   S    
C112  O12   A    
C144  O39   A    
C108  C109  S    
C96   H149  S    
C10   H84   S    
C117  C132  A    
C110  C111  S    
C36   C53   A    
C19   C37   A    
C114  H27   S    
O11   Zn6   S    
C142  O43   A    
C38   C55   A    
C12   H106  S    
C13   C130  A    
C103  H6    S    
H44   O54   S    
C56   C126  A    
C112  C129  S    
C182  O54   S    
O35   Zn2   S    
C147  C155  S    
C3    C184  A    
C146  O80   A    
C5    C186  A    
C57   C128  A    
H36   O46   S    
C104  C105  S    
O14   Zn1   S    
O2    Zn9   S    
C165  C169  S    
C77   H115  S    
C40   C58   A    
C138  O35   A    
H40   O50   S    
C116  C133  A    
C82   H120  S    
C173  C191  A    
C68   C131  A    
C75   C76   S    
C77   H114  S    
O16   Zn6   S    
C7    C188  A    
C39   C56   A    
C46   C49   A    
C91   H146  S    
C20   H24   S    
C124  C130  S    
C127  C143  S    
C61   C196  S    
C81   C189  S    
C15   C196  A    
C150  O18   A    
O43   Zn4   S    
C17   C34   A    
C93   H141  S    
C98   H159  S    
C91   C92   S    
C118  C136  A    
C146  O7    A    
O40   Zn4   S    
C30   O66   S    
C177  C195  A    
C50   C57   A    
O39   Zn3   S    
C182  C199  A    
C11   C193  A    
C72   C73   S    
C107  C198  S    
H56   O66   S    
C115  C134  A    
C81   H123  S    
C23   C41   A    
H66   O76   S    
C93   H140  S    
C132  C146  S    
C109  H20   S    
C13   C45   A    
C24   C131  A    
C41   O77   S    
H62   O72   S    
C168  O3    A    
C84   H131  S    
C159  C167  T    
C128  C190  A    
C139  O29   A    
C69   C70   S    
C71   H99   S    
O8    Zn9   S    
C113  C184  A    
C88   C89   S    
C70   H87   S    
C66   H78   S    
C9    C191  A    
C102  H8    S    
C175  C193  A    
C64   C195  S    
C111  H31   S    
C54   C101  A    
C164  C170  S    
O27   Zn12  S    
C14   C31   A    
C124  O45   A    
C72   H97   S    
C97   C98   S    
C85   C86   S    
C11   H95   S    
C29   C47   A    
C119  C140  S    
C30   C48   A    
O15   Zn7   S    
C92   H144  S    
C78   C80   S    
C3    C110  S    
O1    Zn1   S    
C100  H9    S    
C2    C129  A    
C20   C38   A    
H63   O73   S    
C62   H74   S    
C63   H71   S    
C106  H12   S    
C26   O62   S    
C27   C44   A    
H59   O69   S    
C2    C44   A    
C107  C108  S    
C65   H82   S    
O78   Zn5   S    
C42   O79   S    
C52   C79   A    
O13   Zn7   S    
C149  C158  S    
O31   Zn2   S    
C152  C161  S    
C110  H33   S    
O30   Zn12  S    
C145  O9    A    
C58   C116  A    
C46   C177  A    
C86   H126  S    
C153  O24   A    
C106  H14   S    
C97   H160  S    
C162  C171  T    
O41   Zn4   S    
C48   C121  A    
C22   H46   S    
C17   H150  S    
C178  C196  A    
C27   O63   S    
C73   H94   S    
C19   H13   S    
C135  O34   A    
C38   O74   S    
C180  O52   S    
C172  C190  A    
C181  O53   S    
C66   H79   S    
O4    Zn11  S    
C152  O22   A    
C87   H137  S    
C35   C130  A    
C5    C91   S    
C53   C125  A    
C145  C154  S    
C100  C200  S    
C172  O44   S    
C55   C127  A    
C98   C99   S    
C78   H112  S    
C134  C168  S    
C161  C170  T    
C157  O6    A    
C53   C90   A    
C74   H108  S    
O33   Zn2   S    
C151  O19   A    
C147  O10   A    
O32   Zn2   S    
C61   H77   S    
C103  H5    S    
O56   Zn7   S    
C37   O73   S    
H45   O55   S    
C89   H134  S    
H47   O57   S    
C75   H104  S    
C71   C72   S    
C4    C94   S    
H43   O53   S    
C106  H11   S    
C107  H25   S    
H37   O47   S    
C61   H76   S    
C133  C157  S    
C76   H103  S    
C102  C103  S    
C88   H135  S    
C114  H28   S    
H49   O59   S    
H64   O74   S    
H50   O60   S    
C145  O11   A    
C141  O40   A    
O20   Zn10  S    
O28   Zn12  S    
C187  O60   S    
C94   H153  S    
C86   H124  S    
C14   H117  S    
C152  O25   A    
C1    O67   A    
C185  O58   S    
C43   C119  A    
C64   H85   S    
C87   C88   S    
C96   H147  S    
C99   H156  S    
H67   O77   S    
C1    C128  S    
C114  H29   S    
C174  O47   S    
C142  O37   A    
C83   H116  S    
C140  O30   A    
C77   C78   S    
O38   Zn3   S    
C54   C126  A    
C136  C179  S    
C73   H96   S    
C8    H1    S    
C97   H3    S    
C137  O27   A    
C2    C173  A    
O17   Zn5   S    
C115  C185  A    
C44   C120  A    
C69   H90   S    
C147  O13   A    
C103  H4    S    
C23   H57   S    
C95   H151  S    
C95   C96   S    
C43   C190  A    
C123  C144  S    
C91   H145  S    
C160  C169  T    
C60   C118  A    
C179  O8    A    
O37   Zn3   S    
C85   H129  S    
C67   C194  S    
C163  C171  S    
O19   Zn9   S    
C101  C183  A    
C105  H16   S    
C31   C49   A    
H52   O62   S    
C35   C48   A    
C76   H101  S    
O25   Zn10  S    
C59   C123  A    
C13   C174  A    
O23   Zn6   S    
C28   O64   S    
C77   C191  S    
C84   C85   S    
C150  C159  S    
C90   C133  A    
C135  O78   A    
C81   H122  S    
C116  C186  A    
C67   H92   S    
C126  C142  S    
C10   C192  A    
C79   C181  A    
O67   Zn6   S    
C1    O1    A    
C4    C185  A    
C62   C63   S    
C109  H19   S    
C188  O61   S    
C8    C189  A    
O9    Zn1   S    
C17   C198  A    
C18   H2    S    
O22   Zn8   S    
C104  H18   S    
H41   O51   S    
C70   H88   S    
C31   O68   S    
C153  O26   A    
H51   O61   S    
C42   C60   A    
C25   H68   S    
C9    C27   A    
C140  O32   A    
H42   O52   S    
C108  H23   S    
C12   C30   A    
C40   O76   S    
O36   Zn3   S    
C60   C127  A    
C183  C200  A    
C104  H17   S    
C72   H98   S    
C25   C42   A    
C176  O49   S    
O18   Zn8   S    
C172  C189  A    
C33   C51   A    
C105  C106  S    
C83   H118  S    
C34   C52   A    
C7    C25   A    
C153  C162  S    
C45   C121  A    
C64   C65   S    
C80   H109  S    
C21   H35   S    
C156  C165  T    
O29   Zn12  S    
C6    C187  A    
C100  H10   S    
C92   C93   S    
C56   C115  A    
C111  C114  S    
C62   H75   S    
C94   C95   S    
C157  O2    A    
O7    Zn10  S    
C82   C83   S    
O6    Zn11  S    
C51   C122  A    
C82   H121  S    
C65   H81   S    
C120  C137  S    
C148  C156  S    
C176  C194  A    
C93   H142  S    
C98   H158  S    
C24   C175  A    
C18   C36   A    
O3    Zn10  S    
C16   C197  A    
O12   Zn5   S    
C168  O5    A    
C143  O42   A    
C177  O50   S    
C6    C23   A    
O34   Zn7   S    
H48   O58   S    
O26   Zn9   S    
C89   H132  S    
C183  O55   S    
C81   C82   S    
C101  C134  A    
C33   O70   S    
C124  O23   A    
C35   C176  A    
O42   Zn4   S    
C99   H157  S    
C131  C135  S    
C149  O17   A    
C75   H105  S    
C52   C123  A    
C9    H73   S    
O21   Zn11  S    
C141  O36   A    
C73   H93   S    
C71   H100  S    
C180  C197  A    
C112  O56   A    
C5    C22   A    
C95   H152  S    
C144  O41   A    
C70   H86   S    
C113  C136  A    
C29   O65   S    
O80   Zn8   S    
C66   H80   S    
C143  O38   A    
C32   O69   S    
H38   O48   S    
H65   O75   S    
C178  O51   S    
C148  O14   A    
C59   C117  A    
C78   H113  S    
H60   O70   S    
H61   O71   S    
C61   C62   S    
C181  C198  A    
C184  O57   S    
C26   C43   A    
C71   C197  S    
C139  O33   A    
C28   C45   A    
C74   C75   S    
C50   C119  A    
C90   C182  A    
C154  C163  T    
C3    C20   A    
C41   C59   A    
C92   H143  S    
C117  C187  A    
C80   H111  S    
C125  C141  S    
C118  C188  A    
C47   C122  A    
C55   C113  A    
H69   O79   S    
C68   C180  A    
C89   H133  S    
C6    C87   S    
C179  O4    A    
C67   C69   S    
C121  C138  S    
C63   H72   S    
C16   C33   A    
H55   O65   S    
C108  H22   S    
C21   C39   A    
C84   C193  S    
C151  O21   A    
C22   C40   A    
C100  C102  S    
C15   H128  S    
C32   C50   A    
C110  H32   S    
C88   H136  S    
C74   C192  S    
C37   C54   A    
C173  O46   S    
C166  C167  S    
C104  C199  S    
C138  O28   A    
C94   H154  S    
C86   H125  S    
C84   H130  S    
C18   C199  A    
C175  O48   S    
C102  H7    S    
C34   O71   S    
C96   H148  S    
C24   C47   A    
C12   C194  A    
C99   H155  S    
C155  C164  T    
C151  C160  S    
C4    C21   A    
C64   H83   S    
C79   C132  A    
C83   H119  S    
H53   O63   S    
C69   H89   S    
H39   O49   S    
H54   O64   S    
C51   C68   A    
C87   H138  S    
C80   H110  S    
C148  O16   A    
H34   O44   S    
C11   C29   A    
C58   C125  A    
C65   C66   S    
C174  C192  A    
C39   O75   S    
O10   Zn5   S    
C111  H30   S    
C137  O31   A    
C85   H127  S    
C16   H139  S    
C74   H107  S    
H58   O68   S    
