data_mof_unit_4664.cif
_audit_creation_date              2012-12-10T18:25:37-0500
_audit_creation_method            fapswitch 2.2
_symmetry_space_group_name_H-M    P1
_symmetry_Int_Tables_number       1
_space_group_crystal_system       triclinic
_cell_length_a                    26.27567
_cell_length_b                    26.068289
_cell_length_c                    18.366209
_cell_angle_alpha                 90.067562
_cell_angle_beta                  135.221838
_cell_angle_gamma                 89.770291
_cell_volume                      8860.90568155

loop_
_atom_site_label
_atom_site_type_symbol
_atom_type_description
_atom_site_fract_x
_atom_site_fract_y
_atom_site_fract_z
_atom_type_partial_charge
C1    C     C_R   0.106895 0.248767 0.495759 0.946930
C2    C     C_3   0.450481 0.751347 0.897930 -0.254691
C3    C     C_R   0.744193 0.390846 0.494617 0.911683
C4    C     C_R   0.109776 0.250666 0.217830 0.908150
C5    C     C_R   0.108745 0.750670 0.217978 0.889120
C6    C     C_R   0.608951 0.749852 0.217898 0.947321
C7    C     C_R   0.610269 0.249105 0.218148 0.960656
C8    C     C_R   0.389513 0.251326 0.782273 0.888608
C9    C     C_R   0.390823 0.749739 0.782222 0.918939
C10   C     C_R   0.890069 0.751097 0.782210 0.907690
C11   C     C_R   0.889620 0.248677 0.782192 0.875722
C12   C     C_3   0.478503 0.190477 0.937876 0.492241
C13   C     C_3   0.949494 0.749615 0.898097 -0.244094
C14   C     C_3   0.491811 0.806151 0.938208 0.441605
C15   C     C_3   0.977473 0.691058 0.939084 0.504172
C16   C     C_3   0.973738 0.309229 0.937759 0.498516
C17   C     C_3   0.547044 0.192705 0.060240 0.096168
C18   C     C_3   0.547452 0.806564 0.060862 0.135175
C19   C     C_3   0.046596 0.694231 0.060678 0.027954
C20   C     C_3   0.046039 0.306537 0.057711 -0.008049
C21   C     C_3   0.419728 0.266779 0.943480 -0.405055
C22   C     C_3   0.418410 0.740807 0.942003 -0.377268
C23   C     C_3   0.920389 0.770327 0.941712 -0.395892
C24   C     C_3   0.948093 0.250216 0.898039 -0.243695
C25   C     C_3   0.920364 0.229019 0.943154 -0.360450
C26   C     C_3   0.554777 0.247530 0.102574 -0.191055
C27   C     C_3   0.553335 0.751929 0.102309 -0.188378
C28   C     C_3   0.053647 0.749209 0.102409 -0.145232
C29   C     C_3   0.053912 0.251779 0.101884 -0.139808
C30   C     C_3   0.481695 0.265881 0.062571 -0.352704
C31   C     C_3   0.478836 0.738834 0.060888 -0.361131
C32   C     C_3   0.980720 0.768643 0.060944 -0.378290
C33   C     C_R   0.106705 0.752447 0.495140 1.056172
C34   C     C_3   0.981511 0.232217 0.062255 -0.340378
C35   C     C_3   0.574193 0.284698 0.060799 -0.361331
C36   C     C_3   0.570685 0.711664 0.060066 -0.375130
C37   C     C_3   0.073780 0.786533 0.061844 -0.352441
C38   C     C_3   0.073849 0.213927 0.061144 -0.349895
C39   C     C_3   0.513733 0.289594 0.587176 0.535219
C40   C     C_3   0.513460 0.707809 0.583193 0.528382
C41   C     C_3   0.014861 0.788328 0.588909 0.515835
C42   C     C_3   0.017492 0.213408 0.591951 0.528037
C43   C     C_3   0.567830 0.289434 0.576356 -0.457742
C44   C     C_R   0.607071 0.749004 0.495995 0.956036
C45   C     C_3   0.567712 0.712222 0.573567 -0.466471
C46   C     C_3   0.068767 0.788751 0.578047 -0.451788
C47   C     C_3   0.071482 0.217038 0.581724 -0.473961
C48   C     C_3   0.406728 0.275902 0.371881 0.431898
C49   C     C_3   0.405935 0.730613 0.372228 0.410979
C50   C     C_3   0.908018 0.776418 0.372149 0.428416
C51   C     C_3   0.908237 0.224413 0.377497 0.441828
C52   C     C_3   0.474660 0.198677 0.504522 0.088633
C53   C     C_3   0.481676 0.802761 0.518653 0.098470
C54   C     C_3   0.973397 0.699058 0.505448 0.096931
C55   C     C_R   0.606655 0.252618 0.494891 1.031205
C56   C     C_3   0.974601 0.304097 0.504945 0.088868
C57   C     C_3   0.442867 0.255079 0.487297 -0.510986
C58   C     C_3   0.444718 0.746443 0.490661 -0.500476
C59   C     C_3   0.942909 0.755363 0.487754 -0.508486
C60   C     C_3   0.944749 0.246609 0.491165 -0.486922
C61   C     C_R   0.389356 0.251440 0.496154 0.980100
C62   C     C_R   0.390431 0.749212 0.498085 0.979129
C63   C     C_R   0.888744 0.752055 0.495181 1.006104
C64   C     C_R   0.890655 0.249548 0.498661 0.957319
C65   C     C_3   0.544933 0.255267 0.486340 -0.434341
C66   C     C_3   0.512714 0.287478 0.942100 0.222807
C67   C     C_3   0.545421 0.749519 0.487413 -0.389915
C68   C     C_3   0.044312 0.755981 0.485516 -0.435648
C69   C     C_3   0.045193 0.248851 0.487348 -0.379000
C70   C     C_3   0.471672 0.277725 0.374188 0.407690
C71   C     C_3   0.468300 0.734986 0.370150 0.365144
C72   C     C_3   0.973765 0.782082 0.377447 0.417506
C73   C     C_3   0.970227 0.227891 0.374616 0.368028
C74   C     C_3   0.532819 0.199374 0.503412 0.110987
C75   C     C_3   0.539146 0.804051 0.515502 0.114311
C76   C     C_3   0.025708 0.699736 0.493491 0.117813
C77   C     C_3   0.507289 0.706310 0.941978 0.258653
C78   C     C_3   0.031954 0.304564 0.501905 0.081249
C79   C     C_3   0.233583 0.029909 0.562916 0.185425
C80   C     C_3   0.208552 0.973568 0.532746 0.203968
C81   C     C_3   0.732002 0.529800 0.561923 0.185407
C82   C     C_3   0.707239 0.473267 0.531133 0.187637
C83   C     C_3   0.317964 0.026898 0.540421 -0.401989
C84   C     C_3   0.316256 0.968066 0.549289 -0.444708
C85   C     C_3   0.818030 0.526883 0.542210 -0.388093
C86   C     C_3   0.816263 0.468098 0.551135 -0.460709
C87   C     C_3   0.185757 0.030728 0.379026 0.058161
C88   C     C_3   0.016222 0.785939 0.942822 0.166819
C89   C     C_3   0.187585 0.969532 0.375967 0.119076
C90   C     C_3   0.685883 0.531080 0.379577 0.046501
C91   C     C_3   0.688399 0.469968 0.376102 0.123599
C92   C     C_3   0.246261 0.050618 0.495794 -0.222598
C93   C     C_3   0.238737 0.948351 0.489925 -0.222000
C94   C     C_3   0.746057 0.550660 0.496345 -0.222244
C95   C     C_3   0.738383 0.448388 0.489585 -0.206343
C96   C     C_3   0.244316 0.448339 0.494049 -0.271736
C97   C     C_3   0.244889 0.551084 0.488481 -0.284267
C98   C     C_3   0.739020 0.948668 0.492569 -0.280502
C99   C     C_3   0.014270 0.213148 0.942010 0.233283
C100  C     C_3   0.739877 0.051504 0.491337 -0.278678
C101  C     C_3   0.297570 0.468019 0.487743 -0.469035
C102  C     C_3   0.306554 0.527180 0.501036 -0.438055
C103  C     C_3   0.772141 0.969809 0.454011 -0.457929
C104  C     C_3   0.781905 0.028767 0.467328 -0.455541
C105  C     C_3   0.161845 0.468611 0.392610 0.432334
C106  C     C_3   0.167700 0.528942 0.375705 0.451376
C107  C     C_3   0.653975 0.969139 0.412038 0.436183
C108  C     C_3   0.654464 0.031405 0.396365 0.450830
C109  C     C_R   0.249054 0.390878 0.499456 0.958176
C110  C     C_3   0.448681 0.248887 0.898361 -0.237957
C111  C     C_R   0.249179 0.609044 0.493302 0.972890
C112  C     C_R   0.747988 0.891015 0.498259 0.961155
C113  C     C_R   0.748303 0.109029 0.497096 0.945918
C114  C     C_3   0.277859 0.471651 0.600809 0.107934
C115  C     C_3   0.270098 0.531259 0.592645 0.138142
C116  C     C_3   0.789023 0.970801 0.606767 0.097408
C117  C     C_3   0.784370 0.030666 0.604374 0.135324
C118  C     C_R   0.250499 0.108653 0.500364 0.925310
C119  C     C_R   0.244658 0.890861 0.495140 0.951123
C120  C     C_R   0.750643 0.608658 0.500682 0.927318
H1    H     H_    0.395927 0.305617 0.915428 0.218230
H2    H     H_    0.620765 0.724852 0.648336 0.261247
H3    H     H_    0.716391 0.461099 0.352262 0.161367
H4    H     H_    0.052049 0.051569 0.149207 0.371914
H5    H     H_    0.013826 0.942275 0.113495 0.413032
H6    H     H_    0.557845 0.554004 0.154234 0.375416
H7    H     H_    0.515670 0.448377 0.111855 0.424794
H8    H     H_    0.717251 0.134590 0.263213 0.423517
H9    H     H_    0.673993 0.912120 0.144923 0.392879
H10   H     H_    0.169738 0.664530 0.259689 0.360946
H11   H     H_    0.097621 0.404647 0.090970 0.409276
H12   H     H_    0.352247 0.450715 0.550245 0.247231
H13   H     H_    0.122465 0.774299 0.649754 0.256084
H14   H     H_    0.361358 0.535806 0.578313 0.220789
H15   H     H_    0.826167 0.952268 0.498459 0.236917
H16   H     H_    0.840723 0.037151 0.531124 0.219930
H17   H     H_    0.325083 0.035850 0.488829 0.217951
H18   H     H_    0.335492 0.949999 0.517353 0.230729
H19   H     H_    0.825817 0.535757 0.491359 0.218673
H20   H     H_    0.836933 0.449836 0.521319 0.227528
H21   H     H_    0.385629 0.462684 0.818349 0.376033
H22   H     H_    0.313494 0.578944 0.820337 0.406512
H23   H     H_    0.913405 0.962134 0.811182 0.386777
H24   H     H_    0.122829 0.233977 0.652849 0.241713
H25   H     H_    0.850492 0.063725 0.854853 0.412574
H26   H     H_    0.282080 0.454821 0.417611 0.313875
H27   H     H_    0.312284 0.542845 0.451645 0.292907
H28   H     H_    0.739171 0.958158 0.373403 0.305417
H29   H     H_    0.767580 0.047489 0.400760 0.277622
H30   H     H_    0.176265 0.364998 0.292887 0.371130
H31   H     H_    0.202373 0.505404 0.207309 0.420898
H32   H     H_    0.567844 0.934811 0.148745 0.428014
H33   H     H_    0.626775 0.021642 0.162648 0.432592
H34   H     H_    0.989119 0.447514 0.321525 0.401963
H35   H     H_    0.336960 0.464875 0.653057 0.125574
H36   H     H_    0.026131 0.632693 0.221172 0.406185
H37   H     H_    0.509260 0.949941 0.399321 0.414705
H38   H     H_    0.472858 0.045441 0.251803 0.412322
H39   H     H_    0.466494 0.240815 0.093195 0.268661
H40   H     H_    0.465226 0.766459 0.090916 0.222953
H41   H     H_    0.964372 0.744641 0.091057 0.272288
H42   H     H_    0.964425 0.256648 0.090902 0.277788
H43   H     H_    0.422538 0.387149 0.923811 0.392440
H44   H     H_    0.454596 0.584732 0.977309 0.414830
H45   H     H_    0.957626 0.881723 0.959239 0.371197
H46   H     H_    0.327663 0.543624 0.652624 0.157959
H47   H     H_    0.996412 0.078787 0.978660 0.406169
H48   H     H_    0.625537 0.273978 0.085882 0.228211
H49   H     H_    0.620233 0.722271 0.080207 0.237514
H50   H     H_    0.127871 0.779116 0.093567 0.241521
H51   H     H_    0.126779 0.222384 0.089500 0.243894
H52   H     H_    0.844107 0.962699 0.640730 0.119054
H53   H     H_    0.840980 0.042128 0.649071 0.151832
H54   H     H_    0.538110 0.167630 0.098961 0.220361
H55   H     H_    0.523987 0.831010 0.080859 0.170022
H56   H     H_    0.039140 0.668208 0.100081 0.199501
H57   H     H_    0.388272 0.704090 0.911712 0.264517
H58   H     H_    0.043267 0.334293 0.100507 0.196112
H59   H     H_    0.374113 0.242781 0.915970 0.253268
H60   H     H_    0.377160 0.769177 0.915898 0.230882
H61   H     H_    0.872706 0.748417 0.912188 0.265750
H62   H     H_    0.871847 0.249741 0.913767 0.256007
H63   H     H_    0.535252 0.274788 0.912492 0.156900
H64   H     H_    0.529083 0.709336 0.908496 0.166327
H65   H     H_    0.041492 0.768108 0.920149 0.169814
H66   H     H_    0.038056 0.228359 0.915423 0.179188
H67   H     H_    0.391663 0.127757 0.010498 0.419043
H68   H     H_    0.899971 0.810012 0.914172 0.210811
H69   H     H_    0.329658 0.848430 0.838129 0.399394
H70   H     H_    0.885718 0.636038 0.010301 0.418657
H71   H     H_    0.896814 0.369718 0.028662 0.427057
H72   H     H_    0.585474 0.322827 0.096990 0.275850
H73   H     H_    0.583509 0.674159 0.099027 0.253418
H74   H     H_    0.080052 0.824895 0.093633 0.259252
H75   H     H_    0.082357 0.175647 0.095226 0.248346
H76   H     H_    0.516033 0.435975 0.581201 0.396550
H77   H     H_    0.515354 0.564130 0.546523 0.399859
H78   H     H_    0.024979 0.933092 0.609828 0.396294
H79   H     H_    0.902130 0.188798 0.918352 0.262844
H80   H     H_    0.035636 0.068283 0.588987 0.398915
H81   H     H_    0.557994 0.300130 0.822152 0.398171
H82   H     H_    0.501231 0.716287 0.759727 0.394243
H83   H     H_    0.015492 0.772723 0.769467 0.398271
H84   H     H_    0.994926 0.229732 0.750241 0.381996
H85   H     H_    0.579275 0.328322 0.568773 0.287685
H86   H     H_    0.581991 0.674625 0.565111 0.282156
H87   H     H_    0.083758 0.827726 0.577752 0.287245
H88   H     H_    0.090050 0.179095 0.582290 0.286436
H89   H     H_    0.277935 0.383547 0.198689 0.421758
H90   H     H_    0.488141 0.305079 0.092308 0.248632
H91   H     H_    0.373139 0.585376 0.335073 0.399819
H92   H     H_    0.780302 0.879667 0.184552 0.390512
H93   H     H_    0.889632 0.078364 0.373862 0.390920
H94   H     H_    0.430653 0.391933 0.218839 0.412948
H95   H     H_    0.579037 0.687008 0.360634 0.334167
H96   H     H_    0.939140 0.909137 0.254297 0.413749
H97   H     H_    0.087423 0.174913 0.379920 0.342105
H98   H     H_    0.438126 0.064165 0.415537 0.397424
H99   H     H_    0.417525 0.933824 0.405043 0.384310
H100  H     H_    0.943401 0.560952 0.442909 0.394989
H101  H     H_    0.480865 0.700253 0.088634 0.283992
H102  H     H_    0.921920 0.433557 0.388421 0.389975
H103  H     H_    0.522998 0.088482 0.844760 0.400598
H104  H     H_    0.520193 0.895307 0.839805 0.400484
H105  H     H_    0.013850 0.581264 0.848906 0.405926
H106  H     H_    0.902810 0.365100 0.694852 0.341920
H107  H     H_    0.504272 0.191216 0.582590 0.218886
H108  H     H_    0.513783 0.804875 0.598408 0.217506
H109  H     H_    0.005821 0.691866 0.585697 0.236723
H110  H     H_    0.005924 0.310740 0.583514 0.217414
H111  H     H_    0.634351 0.096019 0.696272 0.413620
H112  H     H_    0.987741 0.807964 0.090729 0.223929
H113  H     H_    0.651383 0.907147 0.703813 0.419731
H114  H     H_    0.138825 0.602386 0.703974 0.417571
H115  H     H_    0.214971 0.306698 0.683196 0.350077
H116  H     H_    0.513136 0.175953 0.438177 0.250761
H117  H     H_    0.521067 0.830786 0.454380 0.244123
H118  H     H_    0.997406 0.680503 0.419884 0.237048
H119  H     H_    0.011580 0.327328 0.435251 0.242279
H120  H     H_    0.245485 0.233368 0.095614 0.402324
H121  H     H_    0.241510 0.787796 0.107303 0.399675
H122  H     H_    0.753404 0.726229 0.098750 0.404932
H123  H     H_    0.989978 0.193353 0.094595 0.251528
H124  H     H_    0.744121 0.268176 0.102591 0.397730
H125  H     H_    0.366892 0.241957 0.097799 0.388615
H126  H     H_    0.472443 0.816339 0.200474 0.396410
H127  H     H_    0.872749 0.764656 0.098335 0.385197
H128  H     H_    0.985829 0.310334 0.222015 0.414757
H129  H     H_    0.317533 0.032737 0.826490 0.417175
H130  H     H_    0.164626 0.963020 0.682661 0.406084
H131  H     H_    0.813707 0.535429 0.825280 0.419024
H132  H     H_    0.665805 0.458778 0.684100 0.405873
H133  H     H_    0.188933 0.052334 0.542957 0.175511
H134  H     H_    0.621995 0.277415 0.649845 0.267596
H135  H     H_    0.149568 0.976916 0.464561 0.173423
H136  H     H_    0.686741 0.552107 0.540409 0.173808
H137  H     H_    0.648307 0.476252 0.462512 0.175118
H138  H     H_    0.366265 0.043095 0.616569 0.264432
H139  H     H_    0.355687 0.955724 0.631111 0.272943
H140  H     H_    0.865864 0.543146 0.618709 0.265387
H141  H     H_    0.854499 0.456156 0.633040 0.275212
H142  H     H_    0.201960 0.044135 0.340317 0.145809
H143  H     H_    0.214208 0.960010 0.350243 0.158319
H144  H     H_    0.701723 0.545177 0.340745 0.146009
O1    O     O_3   0.249990 0.249990 0.500000 -0.586170
O2    O     O_R   0.249990 0.866860 0.561260 -0.555996
O3    O     O_3   0.920515 0.107734 0.391377 -0.418225
O4    O     O_2   0.512206 0.383117 0.425864 -0.177556
O5    O     O_2   0.548977 0.338479 0.356903 -0.271265
O6    O     O_3   0.414701 0.362484 0.232528 -0.407060
O7    O     O_2   0.525006 0.635667 0.407548 -0.222440
O8    O     O_2   0.411680 0.655245 0.230294 -0.099743
O9    O     O_3   0.527417 0.692945 0.297141 -0.485213
O10   O     O_2   0.014858 0.885711 0.447673 -0.201378
O11   O     O_2   0.057755 0.847572 0.380740 -0.242184
O12   O     O_3   0.924559 0.873701 0.251860 -0.408387
O13   O     O_R   0.749990 0.633140 0.561260 -0.588567
O14   O     O_2   0.035540 0.130397 0.434261 -0.224534
O15   O     O_2   0.921934 0.141282 0.253076 -0.096165
O16   O     O_3   0.035899 0.180648 0.315669 -0.464433
O17   O     O_2   0.450730 0.109761 0.553418 -0.280465
O18   O     O_2   0.345589 0.138721 0.379871 -0.189273
O19   O     O_3   0.450520 0.099636 0.413601 -0.434374
O20   O     O_2   0.371264 0.868920 0.460729 -0.254952
O21   O     O_2   0.494761 0.896320 0.595315 -0.230454
O22   O     O_3   0.434609 0.899127 0.408339 -0.471313
O23   O     O_2   0.941777 0.616755 0.558753 -0.272431
O24   O     O_R   0.749990 0.366860 0.561260 -0.548346
O25   O     O_2   0.844311 0.638312 0.377319 -0.186405
O26   O     O_3   0.956984 0.595165 0.437853 -0.431500
O27   O     O_2   0.853623 0.368274 0.418586 -0.223236
O28   O     O_2   0.973777 0.399783 0.562715 -0.238841
O29   O     O_3   0.928764 0.396620 0.384542 -0.473843
O30   O     O_2   0.427787 0.164396 0.748542 -0.312701
O31   O     O_2   0.552352 0.190184 0.880418 -0.233867
O32   O     O_3   0.517642 0.099724 0.890588 -0.393753
O33   O     O_2   0.594758 0.781299 0.936994 -0.221682
O34   O     O_2   0.475494 0.807137 0.773595 -0.360587
O35   O     O_R   0.102520 0.280640 0.438750 -0.542904
O36   O     O_3   0.560234 0.877068 0.905340 -0.375162
O37   O     O_2   0.927006 0.661528 0.751246 -0.309663
O38   O     O_2   0.053491 0.681566 0.885073 -0.211922
O39   O     O_3   0.011150 0.595735 0.895994 -0.388365
O40   O     O_2   0.019862 0.393926 0.904188 -0.153595
O41   O     O_2   0.015425 0.312129 0.835412 -0.301435
O42   O     O_3   0.897190 0.360353 0.742352 -0.504486
O43   O     O_2   0.666472 0.161307 0.605096 -0.235806
O44   O     O_2   0.654979 0.192909 0.716050 -0.246806
O45   O     O_3   0.594272 0.106485 0.623013 -0.402963
O46   O     O_R   0.102520 0.719360 0.438750 -0.562005
O47   O     O_2   0.647328 0.811468 0.729852 -0.231116
O48   O     O_2   0.685948 0.822178 0.644304 -0.261233
O49   O     O_3   0.613823 0.895910 0.630791 -0.400949
O50   O     O_2   0.109710 0.626856 0.529093 -0.145216
O51   O     O_2   0.171880 0.688704 0.669466 -0.299256
O52   O     O_3   0.091578 0.619693 0.649135 -0.421154
O53   O     O_2   0.093890 0.395905 0.593796 -0.099656
O54   O     O_2   0.137898 0.325323 0.712391 -0.222002
O55   O     O_3   0.181398 0.330534 0.623984 -0.493393
O56   O     O_2   0.352071 0.182168 0.262065 -0.203348
O57   O     O_R   0.602520 0.780640 0.438750 -0.551877
O58   O     O_2   0.272912 0.227795 0.263296 -0.219065
O59   O     O_3   0.281144 0.259950 0.145479 -0.363582
O60   O     O_2   0.263640 0.755317 0.263299 -0.223972
O61   O     O_2   0.332508 0.827312 0.292411 -0.186385
O62   O     O_3   0.281891 0.762705 0.149422 -0.388985
O63   O     O_2   0.863281 0.679913 0.273831 -0.221199
O64   O     O_2   0.776990 0.725515 0.262261 -0.220853
O65   O     O_3   0.789490 0.753144 0.146257 -0.370284
O66   O     O_2   0.765247 0.247089 0.266882 -0.221624
O67   O     O_2   0.827681 0.316971 0.274117 -0.184157
O68   O     O_R   0.602520 0.219360 0.438750 -0.554952
O69   O     O_3   0.782547 0.242346 0.150572 -0.386884
O70   O     O_2   0.505954 0.254732 0.264000 -0.287076
O71   O     O_2   0.448021 0.185702 0.267526 -0.230967
O72   O     O_3   0.374212 0.264265 0.148305 -0.410519
O73   O     O_2   0.379294 0.757355 0.163569 -0.168723
O74   O     O_2   0.416538 0.832518 0.271735 -0.206604
O75   O     O_3   0.499009 0.793500 0.261298 -0.463487
O76   O     O_2   0.012792 0.767499 0.271836 -0.300515
O77   O     O_2   0.945112 0.697592 0.253150 -0.262004
O78   O     O_3   0.880516 0.782768 0.153006 -0.389298
O79   O     O_R   0.336190 0.219350 0.438710 -0.548259
O80   O     O_2   0.880346 0.239740 0.163690 -0.144189
O81   O     O_2   0.911784 0.320112 0.255888 -0.247940
O82   O     O_3   0.999274 0.277160 0.258232 -0.489416
O83   O     O_2   0.361392 0.992931 0.753335 -0.213749
O84   O     O_2   0.355304 0.083665 0.724792 -0.189473
O85   O     O_3   0.280806 0.048321 0.756716 -0.425587
O86   O     O_2   0.156741 0.895037 0.562840 -0.220984
O87   O     O_2   0.276078 0.925413 0.717489 -0.188639
O88   O     O_3   0.164934 0.981902 0.636207 -0.482924
O89   O     O_2   0.858336 0.492975 0.754186 -0.206597
O90   O     O_R   0.336190 0.780650 0.438710 -0.532919
O91   O     O_2   0.852765 0.583658 0.725870 -0.192908
O92   O     O_3   0.776053 0.548754 0.753639 -0.425532
O93   O     O_2   0.653237 0.394673 0.556062 -0.222695
O94   O     O_2   0.775263 0.421170 0.711776 -0.133870
O95   O     O_3   0.667291 0.479331 0.640308 -0.484136
O96   O     O_2   0.072026 0.056816 0.352465 -0.187123
O97   O     O_2   0.107181 0.118474 0.294734 -0.334590
O98   O     O_3   0.035212 0.040959 0.180973 -0.409270
O99   O     O_2   0.108579 0.879625 0.292856 -0.293461
O100  O     O_2   0.048259 0.953884 0.284356 -0.205640
O101  O     O_R   0.836190 0.719350 0.438710 -0.546654
O102  O     O_3   0.066143 0.949436 0.162006 -0.479465
O103  O     O_2   0.569280 0.551926 0.349950 -0.179918
O104  O     O_2   0.606368 0.618756 0.303005 -0.334887
O105  O     O_3   0.537226 0.543319 0.180655 -0.422130
O106  O     O_2   0.610169 0.379917 0.287645 -0.285050
O107  O     O_2   0.548412 0.452369 0.280700 -0.205457
O108  O     O_3   0.568707 0.451876 0.160856 -0.469931
O109  O     O_2   0.620014 0.108974 0.084635 -0.196350
O110  O     O_2   0.659276 0.190981 0.074121 -0.173925
O111  O     O_3   0.693524 0.168622 0.240522 -0.510514
O112  O     O_3   0.249990 0.750010 0.500000 -0.584146
O113  O     O_R   0.836190 0.280650 0.438710 -0.543134
O114  O     O_2   0.672007 0.842548 0.244179 -0.287575
O115  O     O_2   0.680184 0.805020 0.131197 -0.173198
O116  O     O_3   0.625769 0.896280 0.090373 -0.438738
O117  O     O_2   0.128119 0.614731 0.087943 -0.116253
O118  O     O_2   0.157818 0.699960 0.072677 -0.176572
O119  O     O_3   0.193398 0.677034 0.239229 -0.457286
O120  O     O_2   0.190567 0.307481 0.202393 -0.262635
O121  O     O_2   0.135480 0.304161 0.027525 -0.165377
O122  O     O_3   0.135864 0.390713 0.097681 -0.403929
O123  O     O_2   0.206355 0.446230 0.655450 -0.055696
O124  O     O_R   0.163790 0.219360 0.561280 -0.663938
O125  O     O_2   0.289060 0.382455 0.687997 -0.298905
O126  O     O_3   0.342611 0.460552 0.806554 -0.466690
O127  O     O_2   0.245761 0.622550 0.638221 -0.278203
O128  O     O_2   0.189378 0.547616 0.637683 -0.133997
O129  O     O_3   0.325510 0.559311 0.787895 -0.478174
O130  O     O_2   0.747759 0.953252 0.708929 -0.124924
O131  O     O_2   0.797667 0.880430 0.693651 -0.258911
O132  O     O_3   0.883628 0.951488 0.822993 -0.448713
O133  O     O_2   0.786799 0.121555 0.681712 -0.277994
O134  O     O_2   0.719743 0.053275 0.673327 -0.145394
O135  O     O_R   0.163790 0.780640 0.561280 -0.615755
O136  O     O_3   0.858135 0.049273 0.813286 -0.476282
O137  O     O_2   0.070068 0.388299 0.259042 -0.239909
O138  O     O_2   0.064861 0.460602 0.174945 -0.146627
O139  O     O_3   0.177992 0.401918 0.282825 -0.531190
O140  O     O_2   0.097157 0.552409 0.172252 -0.119940
O141  O     O_2   0.217593 0.585281 0.309437 -0.322268
O142  O     O_3   0.203949 0.492400 0.259548 -0.489687
O143  O     O_2   0.566356 0.883787 0.287037 -0.184894
O144  O     O_2   0.515563 0.964983 0.213936 -0.197725
O145  O     O_3   0.612835 0.931722 0.223272 -0.507423
O146  O     O_R   0.663790 0.719360 0.561280 -0.636820
O147  O     O_2   0.541767 0.044897 0.179408 -0.189086
O148  O     O_2   0.636422 0.104864 0.270799 -0.282300
O149  O     O_3   0.661037 0.018280 0.238589 -0.557869
O150  O     O_2   0.119155 0.406239 0.465905 -0.193859
O151  O     O_2   0.110400 0.496803 0.478111 -0.190012
O152  O     O_3   0.015048 0.453882 0.301574 -0.422207
O153  O     O_2   0.017771 0.531938 0.224443 -0.167502
O154  O     O_2   0.075471 0.577725 0.382661 -0.172031
O155  O     O_3   0.073323 0.618054 0.254052 -0.509160
O156  O     O_2   0.651804 0.900952 0.524390 -0.196345
O157  O     O_R   0.663790 0.280640 0.561280 -0.605525
O158  O     O_2   0.629368 0.989033 0.535325 -0.185817
O159  O     O_3   0.528596 0.937430 0.371981 -0.401146
O160  O     O_2   0.616125 0.082885 0.484578 -0.147938
O161  O     O_2   0.558207 0.114049 0.317333 -0.186550
O162  O     O_3   0.510784 0.031863 0.323210 -0.469584
O163  O     O_2   0.559884 0.380858 0.950042 -0.200354
O164  O     O_2   0.432423 0.368866 0.798508 -0.239239
O165  O     O_3   0.475488 0.382545 0.975341 -0.543767
O166  O     O_2   0.405717 0.632986 0.801594 -0.223499
O167  O     O_2   0.531604 0.606330 0.938205 -0.230484
O168  O     O_R   0.397470 0.280620 0.561260 -0.548781
O169  O     O_3   0.461417 0.622342 0.986531 -0.560614
O170  O     O_2   0.070871 0.868255 0.931319 -0.186944
O171  O     O_2   0.940665 0.866712 0.794087 -0.212002
O172  O     O_3   0.001638 0.891510 0.977111 -0.493662
O173  O     O_2   0.938467 0.131961 0.795799 -0.171176
O174  O     O_2   0.066846 0.122759 0.948214 -0.227208
O175  O     O_3   0.980538 0.114716 0.970222 -0.571133
O176  O     O_R   0.397470 0.719380 0.561260 -0.602339
O177  O     O_R   0.897470 0.780620 0.561260 -0.582527
O178  O     O_R   0.897470 0.219380 0.561260 -0.605515
O179  O     O_R   0.188730 0.366850 0.438750 -0.580506
O180  O     O_3   0.749990 0.749990 0.500000 -0.590486
O181  O     O_R   0.188730 0.633150 0.438750 -0.561883
O182  O     O_R   0.688730 0.866850 0.438750 -0.550488
O183  O     O_R   0.688730 0.133150 0.438750 -0.552123
O184  O     O_R   0.249980 0.133140 0.438710 -0.606677
O185  O     O_R   0.249980 0.866860 0.438710 -0.603162
O186  O     O_R   0.749980 0.633140 0.438710 -0.610925
O187  O     O_R   0.749980 0.366860 0.438710 -0.611118
O188  O     O_R   0.102500 0.280640 0.266310 -0.620771
O189  O     O_R   0.102500 0.719360 0.266310 -0.628897
O190  O     O_R   0.602500 0.780640 0.266310 -0.586282
O191  O     O_3   0.749990 0.250010 0.500000 -0.594326
O192  O     O_R   0.602500 0.219360 0.266310 -0.572662
O193  O     O_R   0.336220 0.219350 0.733700 -0.576204
O194  O     O_R   0.336220 0.780650 0.733700 -0.619166
O195  O     O_R   0.836220 0.719350 0.733700 -0.559466
O196  O     O_R   0.836220 0.280650 0.733700 -0.554335
O197  O     O_R   0.163750 0.219360 0.266290 -0.591974
O198  O     O_R   0.163750 0.780640 0.266290 -0.580029
O199  O     O_R   0.663750 0.719360 0.266290 -0.605955
O200  O     O_R   0.663750 0.280640 0.266290 -0.587037
O201  O     O_R   0.397490 0.280620 0.733700 -0.555451
O202  O     O_R   0.311270 0.366840 0.561280 -0.585710
O203  O     O_R   0.397490 0.719380 0.733700 -0.614360
O204  O     O_R   0.897490 0.780620 0.733700 -0.593750
O205  O     O_R   0.897490 0.219380 0.733700 -0.622536
O206  O     O_2   0.339612 0.147382 0.819983 -0.186335
O207  O     O_2   0.444883 0.092317 0.943526 -0.166921
O208  O     O_3   0.414530 0.158237 0.011472 -0.603168
O209  O     O_2   0.478813 0.908890 0.949820 -0.182558
O210  O     O_2   0.389629 0.872058 0.778987 -0.250550
O211  O     O_3   0.377549 0.857612 0.906797 -0.528079
O212  O     O_2   0.837978 0.649255 0.821960 -0.182904
O213  O     O_R   0.311270 0.633160 0.561280 -0.591066
O214  O     O_2   0.942217 0.594910 0.951705 -0.161403
O215  O     O_3   0.910840 0.664900 0.011768 -0.620645
O216  O     O_2   0.923199 0.404695 0.924755 -0.151754
O217  O     O_2   0.832520 0.337516 0.837210 -0.202754
O218  O     O_3   0.925496 0.342147 0.034250 -0.595597
O219  O     O_2   0.424128 0.370750 0.547617 -0.234649
O220  O     O_2   0.546008 0.370792 0.715151 -0.204422
O221  O     O_3   0.527845 0.402307 0.570974 -0.475819
O222  O     O_2   0.556075 0.618290 0.697253 -0.163183
O223  O     O_2   0.428940 0.623833 0.543246 -0.243590
O224  O     O_R   0.811270 0.866840 0.561280 -0.584849
O225  O     O_3   0.521200 0.599845 0.535046 -0.463938
O226  O     O_2   0.918788 0.869244 0.530137 -0.245534
O227  O     O_2   0.020969 0.859772 0.709412 -0.196043
O228  O     O_3   0.043032 0.899981 0.608668 -0.486798
O229  O     O_2   0.070767 0.131242 0.726564 -0.157885
O230  O     O_2   0.943376 0.127088 0.573054 -0.222621
O231  O     O_3   0.037354 0.103049 0.569029 -0.463457
O232  O     O_2   0.571680 0.207654 0.741377 -0.203642
O233  O     O_2   0.636532 0.287074 0.795898 -0.223793
O234  O     O_3   0.519636 0.284861 0.752632 -0.456351
O235  O     O_R   0.811270 0.133160 0.561280 -0.580101
O236  O     O_2   0.638294 0.708507 0.793009 -0.184294
O237  O     O_2   0.560215 0.779590 0.744607 -0.226020
O238  O     O_3   0.524500 0.690844 0.751383 -0.428510
O239  O     O_2   0.111434 0.712627 0.743071 -0.202896
O240  O     O_2   0.123774 0.797009 0.802972 -0.192979
O241  O     O_3   0.014421 0.743081 0.734779 -0.487503
O242  O     O_2   0.141166 0.227608 0.799957 -0.188340
O243  O     O_2   0.053111 0.294273 0.733716 -0.243443
O244  O     O_3   0.030059 0.206339 0.763049 -0.423628
O245  O     O_2   0.315438 0.334483 0.362610 -0.283442
O246  O     O_R   0.249990 0.133140 0.561260 -0.587435
O247  O     O_2   0.402583 0.384731 0.386713 -0.195860
O248  O     O_3   0.299020 0.349464 0.208822 -0.342286
O249  O     O_2   0.326862 0.661435 0.369319 -0.246315
O250  O     O_2   0.300057 0.666019 0.213654 -0.099278
O251  O     O_3   0.407040 0.613876 0.359769 -0.421367
O252  O     O_2   0.805066 0.829604 0.341510 -0.267326
O253  O     O_2   0.894341 0.884783 0.377545 -0.209753
O254  O     O_3   0.802414 0.845320 0.200319 -0.361022
O255  O     O_2   0.837105 0.157084 0.392525 -0.335846
O256  O     O_2   0.807793 0.151839 0.234885 -0.134112
S1    S     S_3+6 0.416464 0.146083 0.923405 0.091004
S2    S     S_3+6 0.560431 0.724933 0.719029 0.134269
S3    S     S_3+6 0.068354 0.759308 0.719971 0.106459
S4    S     S_3+6 0.061388 0.238651 0.722281 0.120279
S5    S     S_3+6 0.357792 0.337547 0.336228 0.178818
S6    S     S_3+6 0.360319 0.667313 0.329672 0.186451
S7    S     S_3+6 0.853938 0.835746 0.326836 0.163455
S8    S     S_3+6 0.868676 0.159644 0.349730 0.144004
S9    S     S_3+6 0.489411 0.341913 0.351809 0.151220
S10   S     S_3+6 0.482240 0.677133 0.327454 0.170896
S11   S     S_3+6 0.995151 0.848601 0.369128 0.156211
S12   S     S_3+6 0.432976 0.862316 0.890837 0.096914
S13   S     S_3+6 0.990134 0.167550 0.345957 0.179196
S14   S     S_3+6 0.426580 0.136699 0.460578 0.122115
S15   S     S_3+6 0.442817 0.867018 0.495433 0.111567
S16   S     S_3+6 0.925023 0.637381 0.467063 0.132826
S17   S     S_3+6 0.929416 0.367331 0.466834 0.113509
S18   S     S_3+6 0.494659 0.162083 0.862636 0.135230
S19   S     S_3+6 0.531951 0.816378 0.888209 0.122747
S20   S     S_3+6 0.992728 0.658440 0.865711 0.132819
S21   S     S_3+6 0.979840 0.344324 0.856609 0.116829
S22   S     S_3+6 0.615445 0.165838 0.616034 0.116188
S23   S     S_3+6 0.914280 0.649094 0.926559 0.089362
S24   S     S_3+6 0.624910 0.832100 0.634311 0.111730
S25   S     S_3+6 0.103274 0.658932 0.589287 0.135717
S26   S     S_3+6 0.112554 0.339838 0.611845 0.132001
S27   S     S_3+6 0.329072 0.234505 0.262845 0.173219
S28   S     S_3+6 0.322050 0.771080 0.271196 0.171611
S29   S     S_3+6 0.835222 0.731893 0.265592 0.165110
S30   S     S_3+6 0.821579 0.259951 0.268758 0.169007
S31   S     S_3+6 0.450584 0.243076 0.264797 0.124355
S32   S     S_3+6 0.439912 0.781075 0.267478 0.132117
S33   S     S_3+6 0.953582 0.754757 0.264369 0.113145
S34   S     S_3+6 0.910798 0.349051 0.929509 0.097831
S35   S     S_3+6 0.938863 0.267770 0.262991 0.119583
S36   S     S_3+6 0.311374 0.038399 0.702604 0.155138
S37   S     S_3+6 0.203682 0.941473 0.615593 0.132451
S38   S     S_3+6 0.808340 0.538434 0.702043 0.153020
S39   S     S_3+6 0.702679 0.439787 0.613130 0.148016
S40   S     S_3+6 0.098737 0.062524 0.302851 0.099054
S41   S     S_3+6 0.100606 0.936833 0.279719 0.089814
S42   S     S_3+6 0.598371 0.562002 0.304567 0.105111
S43   S     S_3+6 0.601836 0.437181 0.277120 0.096634
S44   S     S_3+6 0.630760 0.164858 0.111755 0.136772
S45   S     S_3+6 0.500352 0.358400 0.603416 0.139047
S46   S     S_3+6 0.634228 0.837086 0.133939 0.115481
S47   S     S_3+6 0.131913 0.670508 0.111316 0.164553
S48   S     S_3+6 0.128496 0.326519 0.095412 0.103763
S49   S     S_3+6 0.275630 0.438646 0.685332 0.160115
S50   S     S_3+6 0.253153 0.566115 0.660094 0.154121
S51   S     S_3+6 0.801332 0.937588 0.706328 0.157508
S52   S     S_3+6 0.783353 0.064758 0.690539 0.145917
S53   S     S_3+6 0.115790 0.430160 0.273218 0.125511
S54   S     S_3+6 0.170770 0.540169 0.277347 0.113876
S55   S     S_3+6 0.586221 0.936717 0.282793 0.148512
S56   S     S_3+6 0.501728 0.637169 0.587194 0.138091
S57   S     S_3+6 0.622186 0.049477 0.269195 0.088562
S58   S     S_3+6 0.103025 0.456591 0.413733 0.159357
S59   S     S_3+6 0.081989 0.563485 0.310901 0.170628
S60   S     S_3+6 0.617777 0.949985 0.465369 0.170945
S61   S     S_3+6 0.585395 0.066267 0.382267 0.176313
S62   S     S_3+6 0.492778 0.356020 0.911185 0.060401
S63   S     S_3+6 0.474552 0.640475 0.913060 0.050593
S64   S     S_3+6 0.004317 0.853679 0.905628 0.079466
S65   S     S_3+6 0.997816 0.144613 0.908567 0.079005
S66   S     S_3+6 0.997037 0.854726 0.607228 0.132667
S67   S     S_3+6 0.014058 0.143338 0.612726 0.147235
S68   S     S_3+6 0.561919 0.264228 0.719769 0.120791
Zn1   Zn    Zn3+2 0.337540 0.293760 0.587540 1.186201
Zn2   Zn    Zn3+2 0.249980 0.793780 0.412450 1.174784
Zn3   Zn    Zn3+2 0.749980 0.706220 0.412450 1.156562
Zn4   Zn    Zn3+2 0.749980 0.293780 0.412450 1.158375
Zn5   Zn    Zn3+2 0.250000 0.206220 0.587540 1.119294
Zn6   Zn    Zn3+2 0.250000 0.793780 0.587540 1.153964
Zn7   Zn    Zn3+2 0.750000 0.706220 0.587540 1.148974
Zn8   Zn    Zn3+2 0.750000 0.293780 0.587540 1.173745
Zn9   Zn    Zn3+2 0.337540 0.706240 0.587540 1.153995
Zn10  Zn    Zn3+2 0.837540 0.793760 0.587540 1.178854
Zn11  Zn    Zn3+2 0.837540 0.206240 0.587540 1.141850
Zn12  Zn    Zn3+2 0.162450 0.293770 0.412470 1.131054
Zn13  Zn    Zn3+2 0.162450 0.706230 0.412470 1.167890
Zn14  Zn    Zn3+2 0.662450 0.793770 0.412470 1.184889
Zn15  Zn    Zn3+2 0.662450 0.206230 0.412470 1.221680
Zn16  Zn    Zn3+2 0.249980 0.206220 0.412450 1.149910

loop_
_geom_bond_atom_site_label_1
_geom_bond_atom_site_label_2
_ccdc_geom_bond_type
C63   O101  A    
O138  S53   D    
C35   H72   S    
O43   S22   D    
C66   H63   S    
C21   C110  S    
O15   S13   D    
O14   S13   D    
C38   H51   S    
O122  S48   S    
C28   C32   S    
O54   S26   D    
C11   O205  A    
C50   C59   S    
O182  Zn14  S    
C48   S5    S    
H71   O218  S    
C23   H61   S    
C23   H68   S    
O249  S6    D    
O31   S18   D    
C109  O202  A    
C105  S53   S    
C100  C104  S    
C82   S39   S    
C52   S14   S    
O106  S43   D    
C107  S55   S    
C50   C72   S    
C19   H56   S    
O26   S16   S    
C37   C88   S    
O71   S31   D    
C108  S57   S    
C31   H101  S    
O50   S25   D    
O244  S4    S    
O77   S33   D    
O110  S44   D    
C2    C22   S    
O210  S12   D    
O180  Zn3   S    
C107  S60   S    
C97   C115  S    
C61   O79   A    
C54   H109  S    
O5    S9    D    
C25   C34   S    
C20   C29   S    
O196  Zn8   S    
C50   S29   S    
C34   H123  S    
O256  S8    D    
O216  S34   D    
H70   O215  S    
O186  Zn3   S    
O225  S56   S    
C96   C114  S    
C53   C75   S    
O207  S1    D    
C55   C65   S    
O204  Zn10  S    
C114  C115  S    
C3    O24   A    
C40   C58   S    
C27   C31   S    
O229  S67   D    
H32   O145  S    
H127  O78   S    
H128  O82   S    
O170  S64   D    
C38   C99   S    
C49   S28   S    
C35   C66   S    
O128  S50   D    
H7    O108  S    
O93   S39   D    
C12   S18   S    
C40   S2    S    
H120  O59   S    
H91   O251  S    
C106  S59   S    
C25   H79   S    
C52   H107  S    
O109  S44   D    
C16   C20   S    
C1    O124  A    
H10   O119  S    
C88   S64   S    
C79   H133  S    
H122  O65   S    
C4    O197  A    
O80   S35   D    
C50   S7    S    
C87   H142  S    
O194  Zn6   S    
O131  S51   D    
O35   Zn12  S    
O193  Zn5   S    
O255  S8    D    
C87   C89   S    
H89   O248  S    
C27   C36   S    
C51   C60   S    
H106  O42   S    
C64   O113  A    
H11   O122  S    
O221  S45   S    
O10   S11   D    
C111  O213  A    
C117  H53   S    
C7    O192  A    
C115  S50   S    
O180  Zn10  S    
O90   Zn2   S    
H99   O22   S    
O228  S66   S    
C118  O246  A    
C5    O198  A    
H83   O241  S    
O82   S35   S    
O13   Zn7   S    
C48   C70   S    
C63   O177  A    
O246  Zn5   S    
C53   C58   S    
C57   C61   S    
O147  S57   D    
O21   S15   D    
O174  S65   D    
O119  S47   S    
C96   C109  S    
C59   C63   S    
C40   S56   S    
C60   C64   S    
C49   S6    S    
O124  Zn5   S    
O242  S4    D    
C51   S8    S    
C37   H74   S    
O44   S22   D    
O141  S54   D    
C114  S49   S    
O123  S49   D    
O203  Zn9   S    
O158  S60   D    
C80   S37   S    
C84   C93   S    
O92   S38   S    
O57   Zn14  S    
H82   O238  S    
C64   O178  A    
O171  S64   D    
C65   C74   S    
C101  H12   S    
C26   C35   S    
C21   H59   S    
O161  S61   D    
C49   C71   S    
C3    C95   S    
C100  C117  S    
C73   S13   S    
O165  S62   S    
O2    Zn6   S    
C120  O186  A    
O187  Zn4   S    
O62   S28   S    
O25   S16   D    
O209  S12   D    
C32   H112  S    
C45   H86   S    
H105  O39   S    
O180  Zn14  S    
O3    S8    S    
C105  C106  S    
O237  S2    D    
C12   C110  S    
C90   C91   S    
H9    O116  S    
C48   C57   S    
O240  S3    D    
C85   C86   S    
O99   S41   D    
O32   S18   S    
O176  Zn9   S    
C7    C26   S    
O139  S53   S    
C52   C74   S    
O140  S54   D    
C105  S58   S    
C41   S3    S    
O16   S13   S    
C55   O157  A    
C65   C70   S    
C5    C28   S    
C56   C78   S    
C13   C23   S    
C83   H138  S    
O65   S29   S    
O98   S40   S    
C47   C69   S    
O69   S30   S    
H67   O208  S    
C94   C120  S    
H97   O16   S    
C29   C38   S    
O151  S58   D    
C107  C108  S    
O197  Zn16  S    
C89   H143  S    
C14   S19   S    
O144  S55   D    
C90   H144  S    
O236  S2    D    
C112  O224  A    
O178  Zn11  S    
C48   S27   S    
C91   H3    S    
C32   H41   S    
C9    O203  A    
C22   H57   S    
C2    C14   S    
C17   S44   S    
H31   O142  S    
C35   H48   S    
C54   C59   S    
H33   O149  S    
C30   H39   S    
C100  C108  S    
C98   C112  S    
O218  S34   S    
C101  C102  S    
C14   S12   S    
H76   O221  S    
H23   O132  S    
O136  S52   S    
H115  O55   S    
C108  S61   S    
O101  Zn3   S    
H45   O172  S    
O184  Zn16  S    
H44   O169  S    
O27   S17   D    
O230  S67   D    
O97   S40   D    
C91   S43   S    
C79   S36   S    
C46   C68   S    
C19   C28   S    
C8    C110  S    
C102  H27   S    
C73   S35   S    
O75   S32   S    
C83   C84   S    
O112  Zn2   S    
C81   S38   S    
O105  S42   S    
O48   S24   D    
O116  S46   S    
O23   S16   D    
O217  S34   D    
H92   O254  S    
O190  Zn14  S    
O189  Zn13  S    
C88   H65   S    
O181  Zn13  S    
C26   C30   S    
C67   C75   S    
O88   S37   S    
O232  S68   D    
O86   S37   D    
H30   O139  S    
O20   S15   D    
O159  S60   S    
C8    O193  A    
C51   S30   S    
H129  O85   S    
C82   C95   S    
C104  H16   S    
C62   O90   A    
O162  S61   S    
H47   O175  S    
C97   C102  S    
C34   H42   S    
C75   S24   S    
O185  Zn2   S    
C68   C76   S    
O78   S33   S    
O248  S5    S    
H93   O3    S    
O61   S28   D    
O155  S59   S    
H6    O105  S    
O60   S28   D    
C80   C93   S    
O239  S3    D    
C70   S9    S    
O74   S32   D    
C81   C94   S    
C77   S63   S    
O6    S9    S    
O45   S22   S    
C39   S45   S    
C28   C37   S    
O47   S24   D    
C89   C93   S    
C113  O183  A    
O208  S1    S    
C91   C95   S    
O153  S59   D    
O46   Zn13  S    
O96   S40   D    
O160  S61   D    
O231  S67   S    
C6    O190  A    
C44   C67   S    
H130  O88   S    
H131  O92   S    
C93   C119  S    
O238  S2    S    
C2    C9    S    
C3    O187  A    
C81   H136  S    
C33   C68   S    
O112  Zn13  S    
O85   S36   S    
C58   C62   S    
C96   C105  S    
O198  Zn2   S    
H34   O152  S    
C78   H119  S    
O132  S51   S    
O103  S42   D    
O134  S52   D    
C84   H139  S    
C20   S48   S    
H125  O72   S    
H4    O98   S    
O9    S10   S    
O235  Zn11  S    
C25   H62   S    
C15   C19   S    
C6    O199  A    
C47   H88   S    
O84   S36   D    
O212  S23   D    
C55   O68   A    
C10   O204  A    
O73   S32   D    
O28   S17   D    
C111  O181  A    
O67   S30   D    
C36   C77   S    
O112  Zn6   S    
C97   C111  S    
C19   S47   S    
C98   C103  S    
O175  S65   S    
C116  H52   S    
C76   H118  S    
O233  S68   D    
C53   S15   S    
C54   S16   S    
O113  Zn4   S    
O121  S48   D    
O11   S11   D    
O245  S5    D    
C7    O200  A    
C12   C17   S    
C45   C67   S    
O55   S26   S    
H121  O62   S    
C90   S42   S    
C24   C25   S    
C69   C73   S    
O146  Zn7   S    
O117  S47   D    
O64   S29   D    
O183  Zn15  S    
C31   H40   S    
O206  S1    D    
C44   O146  A    
O95   S39   S    
H80   O231  S    
O133  S52   D    
C96   C101  S    
O49   S24   S    
C90   C94   S    
C11   O196  A    
C40   C45   S    
O180  Zn7   S    
O107  S43   D    
H132  O95   S    
C9    O194  A    
C100  C113  S    
O68   Zn15  S    
H84   O244  S    
C76   S25   S    
C22   H60   S    
O129  S50   S    
O111  S44   S    
C20   H58   S    
O33   S19   D    
C16   S21   S    
C119  O2    A    
C62   O176  A    
C47   H24   S    
C1    C69   S    
C98   C107  S    
H69   O211  S    
O1    Zn5   S    
H126  O75   S    
C104  H29   S    
O168  Zn1   S    
O250  S6    D    
O226  S66   D    
O40   S21   D    
O166  S63   D    
C13   C15   S    
O66   S30   D    
C43   C65   S    
O195  Zn7   S    
H103  O32   S    
O143  S55   D    
O22   S15   S    
C56   H110  S    
C39   S68   S    
C99   S65   S    
C115  H46   S    
O118  S47   D    
O91   S38   D    
O215  S23   S    
C97   C106  S    
C43   H134  S    
O8    S10   D    
O200  Zn4   S    
O100  S41   D    
O42   S21   S    
O234  S68   S    
C75   H117  S    
O142  S54   S    
C74   S22   S    
C16   S34   S    
C114  H35   S    
C83   H17   S    
C17   H54   S    
O81   S35   D    
O201  Zn1   S    
O76   S33   D    
O247  S5    D    
O108  S43   S    
O192  Zn15  S    
H95   O9    S    
C1    O35   A    
O17   S14   D    
C113  O235  A    
O4    S9    D    
C15   S23   S    
O172  S64   S    
O51   S25   D    
C45   H2    S    
C21   C30   S    
H124  O69   S    
O120  S48   D    
O137  S53   D    
C23   C32   S    
O241  S3    S    
O12   S11   S    
O224  Zn10  S    
C2    C77   S    
O79   Zn16  S    
C46   H13   S    
H8    O111  S    
O167  S63   D    
C44   O57   A    
O83   S36   D    
H25   O136  S    
O191  Zn11  S    
C29   C34   S    
H102  O29   S    
O211  S12   S    
C66   S62   S    
O115  S46   D    
C67   C71   S    
O34   S19   D    
O24   Zn8   S    
O253  S7    D    
C52   C57   S    
O30   S18   D    
C56   C60   S    
O152  S58   S    
C103  C104  S    
H77   O225  S    
H38   O162  S    
C86   C95   S    
C112  O182  A    
O243  S4    D    
C99   H66   S    
C8    O201  A    
C56   S17   S    
C119  O185  A    
O148  S57   D    
O154  S59   D    
O156  S60   D    
C80   H135  S    
C89   S41   S    
C43   H85   S    
C24   C99   S    
O38   S20   D    
C14   C18   S    
O125  S49   D    
C81   C82   S    
C120  O13   A    
C39   C57   S    
O1    Zn1   S    
C70   S31   S    
O164  S62   D    
C83   C92   S    
O41   S21   D    
C36   H49   S    
O130  S51   D    
C17   C26   S    
C53   H108  S    
O63   S29   D    
O149  S57   S    
C38   H75   S    
C42   S4    S    
O53   S26   D    
H43   O165  S    
O59   S27   S    
C11   C24   S    
O114  S46   D    
C77   H64   S    
O191  Zn15  S    
C116  C117  S    
O1    Zn16  S    
O169  S63   S    
H113  O49   S    
C33   O46   A    
C4    O188  A    
C103  H15   S    
C36   H73   S    
C92   C118  S    
O72   S31   S    
O94   S39   D    
H111  O45   S    
C18   S46   S    
C42   S67   S    
H5    O102  S    
C41   C46   S    
C85   H19   S    
C86   H141  S    
H22   O129  S    
C68   C72   S    
C18   H55   S    
O52   S25   S    
C41   S66   S    
C84   H18   S    
C16   C24   S    
O37   S20   D    
C82   H137  S    
H96   O12   S    
C69   C78   S    
H94   O6    S    
C103  H28   S    
O19   S14   S    
C71   S32   S    
O220  S45   D    
C46   H87   S    
C101  H26   S    
O219  S45   D    
C22   C31   S    
C106  S54   S    
O213  Zn9   S    
O177  Zn10  S    
C41   C59   S    
O145  S55   S    
C42   C60   S    
C37   H50   S    
O179  Zn12  S    
C39   C43   S    
O223  S56   D    
H98   O19   S    
O36   S19   S    
O202  Zn1   S    
C66   C110  S    
C49   C58   S    
C117  S52   S    
O7    S10   D    
C102  H14   S    
O157  Zn8   S    
O214  S23   D    
C72   S11   S    
C85   C94   S    
O127  S50   D    
C98   C116  S    
C6    C27   S    
O126  S49   S    
C72   S33   S    
H37   O159  S    
C15   S20   S    
C33   O135  A    
O251  S6    S    
C79   C92   S    
C54   C76   S    
O104  S42   D    
O191  Zn4   S    
O58   S27   D    
O135  Zn6   S    
O205  Zn11  S    
C116  S51   S    
C74   H116  S    
O29   S17   S    
O18   S14   D    
C71   S10   S    
C87   C92   S    
H100  O26   S    
C12   S1    S    
O102  S41   S    
C118  O184  A    
O112  Zn9   S    
C18   C27   S    
C51   C73   S    
H36   O155  S    
C10   C13   S    
C30   H90   S    
C4    C29   S    
O222  S56   D    
O89   S38   D    
C86   H20   S    
O87   S37   D    
C10   O195  A    
O252  S7    D    
H114  O52   S    
O1    Zn12  S    
C87   S40   S    
O70   S31   D    
O150  S58   D    
C61   O168  A    
O199  Zn3   S    
C13   C88   S    
C109  O179  A    
C78   S26   S    
O163  S62   D    
C42   C47   S    
C85   H140  S    
C21   H1    S    
O188  Zn12  S    
O39   S20   S    
C79   C80   S    
O254  S7    S    
H78   O228  S    
O227  S66   D    
O191  Zn8   S    
H104  O36   S    
H21   O126  S    
C5    O189  A    
O173  S65   D    
H81   O234  S    
O56   S27   D    
