data_mof_unit_29.cif
_audit_creation_date              2013-03-05T16:31:30-0500
_audit_creation_method            fapswitch 2.2
_symmetry_space_group_name_H-M    P1
_symmetry_Int_Tables_number       1
_space_group_crystal_system       triclinic
_cell_length_a                    15.866579
_cell_length_b                    15.878698
_cell_length_c                    34.480402
_cell_angle_alpha                 89.815099
_cell_angle_beta                  90.020201
_cell_angle_gamma                 89.908218
_cell_volume                      8686.9567914

loop_
_atom_site_label
_atom_site_type_symbol
_atom_site_description
_atom_site_fract_x
_atom_site_fract_y
_atom_site_fract_z
_atom_type_partial_charge
Zn1   Zn    Zn3+2 0.401050 0.000000 0.217300 0.988127
Zn2   Zn    Zn3+2 0.598950 0.000000 0.782700 0.981792
Zn3   Zn    Zn3+2 1.000000 0.401050 0.217300 0.993082
Zn4   Zn    Zn3+2 0.000000 0.598950 0.782700 1.003513
Zn5   Zn    Zn3+2 0.598950 0.000000 0.217300 0.987387
Zn6   Zn    Zn3+2 0.401050 0.000000 0.782700 0.986822
Zn7   Zn    Zn3+2 0.000000 0.598950 0.217300 0.992472
Zn8   Zn    Zn3+2 0.000000 0.401050 0.782700 0.961303
Zn9   Zn    Zn3+2 0.901050 0.500000 0.717300 0.995940
Zn10  Zn    Zn3+2 0.098950 0.500000 0.282700 0.994176
Zn11  Zn    Zn3+2 0.500000 0.901050 0.717300 0.998930
Zn12  Zn    Zn3+2 0.500000 0.098950 0.282700 0.996949
Zn13  Zn    Zn3+2 0.098950 0.500000 0.717300 1.001621
Zn14  Zn    Zn3+2 0.901050 0.500000 0.282700 0.995474
Zn15  Zn    Zn3+2 0.500000 0.098950 0.717300 0.997966
Zn16  Zn    Zn3+2 0.500000 0.901050 0.282700 0.997187
O1    O     O_3   0.500000 0.000000 0.250000 -0.498702
O2    O     O_3   0.500000 0.000000 0.750000 -0.497538
O3    O     O_3   1.000000 0.500000 0.250000 -0.499402
O4    O     O_3   1.000000 0.500000 0.750000 -0.495954
O5    O     O_R   0.500000 0.930770 0.337490 -0.634790
O6    O     O_R   0.500000 0.069230 0.662510 -0.634863
O7    O     O_R   0.069230 0.500000 0.337490 -0.634842
O8    O     O_R   0.930770 0.500000 0.662510 -0.634972
O9    O     O_R   0.500000 0.069230 0.337490 -0.633654
O10   O     O_R   0.500000 0.930770 0.662510 -0.633846
O11   O     O_R   0.930770 0.500000 0.337490 -0.634736
O12   O     O_R   0.069230 0.500000 0.662510 -0.635490
O13   O     O_R   1.000000 0.430770 0.837490 -0.671284
O14   O     O_R   0.000000 0.569230 0.162510 -0.639022
O15   O     O_R   0.569230 0.000000 0.837490 -0.640321
O16   O     O_R   0.430770 0.000000 0.162510 -0.637684
O17   O     O_R   0.000000 0.569230 0.837490 -0.618037
O18   O     O_R   0.000000 0.430770 0.162510 -0.634165
O19   O     O_R   0.430770 0.000000 0.837490 -0.636425
O20   O     O_R   0.569230 0.000000 0.162510 -0.638470
O21   O     O_R   0.402530 0.166640 0.272980 -0.623931
O22   O     O_R   0.597470 0.833360 0.727020 -0.622118
O23   O     O_R   0.833360 0.402530 0.272980 -0.624954
O24   O     O_R   0.166640 0.597470 0.727020 -0.625373
O25   O     O_R   0.597470 0.833360 0.272980 -0.624621
O26   O     O_R   0.402530 0.166640 0.727020 -0.623130
O27   O     O_R   0.166640 0.597470 0.272980 -0.625141
O28   O     O_R   0.833360 0.402530 0.727020 -0.621240
O29   O     O_R   0.402530 0.833360 0.727020 -0.627887
O30   O     O_R   0.597470 0.166640 0.272980 -0.628069
O31   O     O_R   0.833360 0.597470 0.727020 -0.629156
O32   O     O_R   0.166640 0.402530 0.272980 -0.631026
O33   O     O_R   0.597470 0.166640 0.727020 -0.627098
O34   O     O_R   0.402530 0.833360 0.272980 -0.628676
O35   O     O_R   0.166640 0.402530 0.727020 -0.627453
O36   O     O_R   0.833360 0.597470 0.272980 -0.629973
O37   O     O_R   0.902530 0.666640 0.772980 -0.633227
O38   O     O_R   0.097470 0.333360 0.227020 -0.627478
O39   O     O_R   0.333360 0.902530 0.772980 -0.626293
O40   O     O_R   0.666640 0.097470 0.227020 -0.626565
O41   O     O_R   0.097470 0.333360 0.772980 -0.636673
O42   O     O_R   0.902530 0.666640 0.227020 -0.628536
O43   O     O_R   0.666640 0.097470 0.772980 -0.630403
O44   O     O_R   0.333360 0.902530 0.227020 -0.626032
O45   O     O_R   0.902530 0.333360 0.227020 -0.629341
O46   O     O_R   0.097470 0.666640 0.772980 -0.624495
O47   O     O_R   0.333360 0.097470 0.227020 -0.634962
O48   O     O_R   0.666640 0.902530 0.772980 -0.638621
O49   O     O_R   0.097470 0.666640 0.227020 -0.629126
O50   O     O_R   0.902530 0.333360 0.772980 -0.644318
O51   O     O_R   0.666640 0.902530 0.227020 -0.634886
O52   O     O_R   0.333360 0.097470 0.772980 -0.638510
C1    C     C_R   0.500018 0.999880 0.355948 0.787505
C2    C     C_R   0.499982 0.000120 0.644052 0.787186
C3    C     C_R   0.000013 0.500009 0.355979 0.788805
C4    C     C_R   0.999987 0.499991 0.644021 0.788020
C5    C     C_R   0.999546 0.499159 0.856226 0.807692
C6    C     C_R   0.000229 0.500380 0.144110 0.792216
C7    C     C_R   0.500070 0.000469 0.856052 0.791906
C8    C     C_R   0.500008 0.000239 0.143979 0.789790
C9    C     C_R   0.339965 0.160002 0.249968 0.833070
C10   C     C_R   0.660039 0.840002 0.750030 0.834040
C11   C     C_R   0.839943 0.339986 0.250021 0.835336
C12   C     C_R   0.160028 0.660045 0.749959 0.840079
C13   C     C_R   0.660009 0.839919 0.249996 0.835336
C14   C     C_R   0.339974 0.160061 0.749992 0.834847
C15   C     C_R   0.160078 0.660058 0.249977 0.838156
C16   C     C_R   0.839951 0.339912 0.750005 0.837704
C17   C     C_R   0.339894 0.840039 0.749985 0.832742
C18   C     C_R   0.660094 0.159974 0.250006 0.830847
C19   C     C_R   0.839937 0.659973 0.749991 0.827856
C20   C     C_R   0.160054 0.340019 0.250016 0.826846
C21   C     C_R   0.660089 0.160047 0.749970 0.833426
C22   C     C_R   0.339920 0.839941 0.250024 0.832693
C23   C     C_R   0.159993 0.339902 0.749989 0.841136
C24   C     C_R   0.839973 0.660062 0.249988 0.829392
C25   C     C_1   0.276664 0.776649 0.250018 -0.132866
C26   C     C_1   0.723369 0.223314 0.749961 -0.136024
C27   C     C_1   0.223377 0.276737 0.250012 -0.137876
C28   C     C_1   0.776614 0.723253 0.750000 -0.142070
C29   C     C_1   0.723407 0.223258 0.250008 -0.131537
C30   C     C_1   0.276561 0.776778 0.749969 -0.128681
C31   C     C_1   0.776684 0.723336 0.249969 -0.141055
C32   C     C_1   0.223268 0.276610 0.749996 -0.142732
C33   C     C_1   0.276672 0.223321 0.749976 -0.143995
C34   C     C_1   0.723286 0.776632 0.249992 -0.141098
C35   C     C_1   0.223303 0.723373 0.749927 -0.125199
C36   C     C_1   0.776659 0.276670 0.250045 -0.128738
C37   C     C_1   0.723340 0.776696 0.750053 -0.143747
C38   C     C_1   0.276656 0.223298 0.249954 -0.140660
C39   C     C_1   0.776709 0.276608 0.749991 -0.136203
C40   C     C_1   0.223333 0.723347 0.249983 -0.129948
C41   C     C_R   0.945452 0.554994 0.418860 0.071995
C42   C     C_R   0.054545 0.445006 0.581139 0.071922
C43   C     C_R   0.437079 0.955025 0.418901 0.075423
C44   C     C_R   0.562922 0.044975 0.581099 0.075330
C45   C     C_R   0.054617 0.445058 0.419044 0.072001
C46   C     C_R   0.945384 0.554945 0.580956 0.071919
C47   C     C_R   0.563219 0.044298 0.418766 0.075662
C48   C     C_R   0.436781 0.955703 0.581234 0.075641
C49   C     C_R   0.435298 0.045223 0.918938 0.069766
C50   C     C_R   0.565427 0.960832 0.080637 0.063271
C51   C     C_R   0.944184 0.554448 0.919251 0.081284
C52   C     C_R   0.075134 0.468317 0.082493 0.083507
C53   C     C_R   0.566853 0.963044 0.919614 0.064149
C54   C     C_R   0.435940 0.046207 0.081033 0.062425
C55   C     C_R   0.038036 0.432501 0.920338 0.106869
C56   C     C_R   0.941259 0.545822 0.080701 0.071055
C57   C     C_R   0.000036 0.500025 0.398486 -0.054750
C58   C     C_R   0.999964 0.499976 0.601514 -0.054530
C59   C     C_R   0.500138 0.999655 0.398448 -0.053069
C60   C     C_R   0.499862 0.000345 0.601552 -0.052970
C61   C     C_R   0.500486 0.002547 0.898641 -0.070961
C62   C     C_R   0.500199 0.002085 0.101450 -0.067055
C63   C     C_R   0.995444 0.496410 0.899139 -0.087244
C64   C     C_R   0.004254 0.502441 0.101742 -0.058487
C65   C     C_R   0.065019 0.458238 0.459325 -0.044829
C66   C     C_R   0.934982 0.541766 0.540675 -0.044859
C67   C     C_R   0.552247 0.056738 0.459101 -0.043114
C68   C     C_R   0.447754 0.943262 0.540898 -0.043125
C69   C     C_R   0.935020 0.541797 0.459174 -0.044823
C70   C     C_R   0.064978 0.458204 0.540825 -0.044854
C71   C     C_R   0.447955 0.942879 0.459306 -0.042793
C72   C     C_R   0.552046 0.057120 0.540694 -0.042792
C73   C     C_R   0.573935 0.980440 0.959592 -0.045823
C74   C     C_R   0.428409 0.031851 0.040752 -0.050174
C75   C     C_R   0.057181 0.447005 0.959817 -0.042836
C76   C     C_R   0.956212 0.562683 0.041020 -0.044496
C77   C     C_R   0.428229 0.031042 0.959287 -0.048792
C78   C     C_R   0.573313 0.978832 0.040709 -0.048180
C79   C     C_R   0.957157 0.565448 0.959682 -0.044591
C80   C     C_R   0.069921 0.457480 0.041625 -0.048024
C81   C     C_R   0.000010 0.500010 0.479638 -0.023003
C82   C     C_R   0.999990 0.499994 0.520362 -0.022988
C83   C     C_R   0.500050 0.999905 0.479617 -0.026602
C84   C     C_R   0.499951 0.000095 0.520383 -0.026590
C85   C     C_R   0.500961 0.005764 0.979769 -0.032826
C86   C     C_R   0.500852 0.005571 0.020389 -0.031390
C87   C     C_R   0.010137 0.508248 0.980009 -0.042046
C88   C     C_R   0.012952 0.509957 0.020845 -0.036548
C89   C     C_R   0.138661 0.433237 0.479672 0.181561
C90   C     C_R   0.861339 0.566766 0.520328 0.181515
C91   C     C_R   0.589310 0.125008 0.479285 0.182424
C92   C     C_R   0.410691 0.874992 0.520715 0.182414
C93   C     C_R   0.861359 0.566784 0.479413 0.181595
C94   C     C_R   0.138639 0.433216 0.520587 0.181559
C95   C     C_R   0.410817 0.874785 0.479774 0.182226
C96   C     C_R   0.589184 0.125214 0.520226 0.182184
C97   C     C_R   0.651464 0.974622 0.979837 0.182641
C98   C     C_R   0.351135 0.041063 0.020451 0.191713
C99   C     C_R   0.119116 0.399320 0.979949 0.206008
C100  C     C_R   0.918780 0.631402 0.021120 0.183300
C101  C     C_R   0.350966 0.039729 0.979547 0.194649
C102  C     C_R   0.651088 0.972778 0.020704 0.180868
C103  C     C_R   0.922502 0.634527 0.980290 0.178784
C104  C     C_R   0.120950 0.399524 0.020784 0.197392
C105  C     C_3   0.905982 0.631649 0.398756 -0.358666
C106  C     C_3   0.972971 0.692869 0.383054 -0.382923
C107  C     C_3   0.932064 0.769760 0.364060 -0.856278
H1    H     H_    0.891917 0.750100 0.339288 0.261239
H2    H     H_    0.892890 0.804462 0.385421 0.271832
H3    H     H_    0.981781 0.812776 0.353053 0.252184
H4    H     H_    0.013757 0.714205 0.407333 0.247165
H5    H     H_    0.013744 0.662177 0.361165 0.223558
H6    H     H_    0.862700 0.611450 0.375300 0.253344
H7    H     H_    0.868145 0.669299 0.419299 0.236597
C108  C     C_3   0.094008 0.368346 0.601243 -0.358700
C109  C     C_3   0.027013 0.307129 0.616941 -0.382284
C110  C     C_3   0.067911 0.230228 0.635930 -0.857713
H8    H     H_    0.107079 0.195526 0.614566 0.272070
H9    H     H_    0.108062 0.249875 0.660702 0.260856
H10   H     H_    0.018188 0.187215 0.646935 0.251870
H11   H     H_    0.986243 0.337820 0.638831 0.223638
H12   H     H_    0.986223 0.285805 0.592661 0.247148
H13   H     H_    0.131846 0.330697 0.580699 0.236625
H14   H     H_    0.137288 0.388539 0.624700 0.253214
C111  C     C_3   0.355403 0.929447 0.398520 -0.372232
C112  C     C_3   0.304935 0.006740 0.384679 -0.388645
C113  C     C_3   0.223234 0.980567 0.364695 -0.855910
H15   H     H_    0.237299 0.941394 0.338842 0.257767
H16   H     H_    0.182741 0.944261 0.384997 0.273095
H17   H     H_    0.188212 0.037590 0.355137 0.253758
H18   H     H_    0.289308 0.046980 0.410024 0.247938
H19   H     H_    0.341856 0.045238 0.363928 0.233284
H20   H     H_    0.369296 0.886750 0.373904 0.243365
H21   H     H_    0.312617 0.895257 0.418286 0.242182
C114  C     C_3   0.644597 0.070553 0.601480 -0.372152
C115  C     C_3   0.695065 0.993261 0.615322 -0.388092
C116  C     C_3   0.776763 0.019434 0.635309 -0.857052
H22   H     H_    0.817258 0.055743 0.615009 0.273207
H23   H     H_    0.762693 0.058605 0.661162 0.257658
H24   H     H_    0.811785 0.962411 0.644867 0.253596
H25   H     H_    0.658142 0.954760 0.636072 0.233247
H26   H     H_    0.710697 0.953023 0.589977 0.247911
H27   H     H_    0.687384 0.104742 0.581714 0.242179
H28   H     H_    0.630704 0.113251 0.626096 0.243430
C117  C     C_3   0.094099 0.368410 0.399180 -0.358752
C118  C     C_3   0.027116 0.307165 0.383654 -0.382736
C119  C     C_3   0.068032 0.230314 0.364872 -0.856093
H29   H     H_    0.108110 0.250018 0.340038 0.261219
H30   H     H_    0.107276 0.195621 0.386324 0.272013
H31   H     H_    0.018317 0.187274 0.353993 0.252104
H32   H     H_    0.986389 0.285786 0.407996 0.247328
H33   H     H_    0.986281 0.337850 0.361684 0.223597
H34   H     H_    0.137357 0.388618 0.375670 0.253299
H35   H     H_    0.131966 0.330776 0.419841 0.236638
C120  C     C_3   0.905901 0.631592 0.600821 -0.358468
C121  C     C_3   0.972884 0.692837 0.616347 -0.382783
C122  C     C_3   0.931968 0.769685 0.635132 -0.857290
H36   H     H_    0.892721 0.804379 0.613681 0.272277
H37   H     H_    0.891893 0.749977 0.659966 0.261204
H38   H     H_    0.981683 0.812725 0.646011 0.251704
H39   H     H_    0.013723 0.662149 0.638315 0.223141
H40   H     H_    0.013608 0.714220 0.592004 0.247370
H41   H     H_    0.868034 0.669227 0.580160 0.236648
H42   H     H_    0.862644 0.611383 0.624330 0.253272
C123  C     C_3   0.644955 0.069704 0.398342 -0.372286
C124  C     C_3   0.695187 0.992317 0.384676 -0.388450
C125  C     C_3   0.776967 0.018328 0.364664 -0.856138
H43   H     H_    0.763020 0.057672 0.338731 0.257727
H44   H     H_    0.817579 0.054407 0.384906 0.273047
H45   H     H_    0.811806 0.961242 0.355225 0.253777
H46   H     H_    0.710692 0.951917 0.410107 0.248218
H47   H     H_    0.658144 0.954029 0.363990 0.233317
H48   H     H_    0.631176 0.112528 0.373627 0.243538
H49   H     H_    0.687846 0.103680 0.418054 0.242049
C126  C     C_3   0.355045 0.930298 0.601658 -0.372373
C127  C     C_3   0.304813 0.007685 0.615324 -0.387784
C128  C     C_3   0.223035 0.981675 0.635337 -0.857844
H50   H     H_    0.182421 0.945595 0.615096 0.273220
H51   H     H_    0.236983 0.942333 0.661271 0.257312
H52   H     H_    0.188196 0.038762 0.644776 0.253616
H53   H     H_    0.341857 0.045974 0.636009 0.233210
H54   H     H_    0.289307 0.048085 0.589892 0.248220
H55   H     H_    0.312153 0.896322 0.581946 0.242055
H56   H     H_    0.368823 0.887473 0.626373 0.243426
C129  C     C_3   0.380119 0.112092 0.899196 -0.328085
C130  C     C_3   0.432405 0.184572 0.881896 -0.404153
C131  C     C_3   0.375525 0.252148 0.864156 -0.784461
H57   H     H_    0.336499 0.224857 0.840593 0.257216
H58   H     H_    0.333527 0.279429 0.886633 0.307017
H59   H     H_    0.414808 0.303392 0.851758 0.244691
H60   H     H_    0.471296 0.213553 0.905115 0.243934
H61   H     H_    0.475475 0.161764 0.858916 0.215619
H62   H     H_    0.338895 0.083256 0.876937 0.254680
H63   H     H_    0.337669 0.142517 0.920436 0.247350
C132  C     C_3   0.620443 0.892292 0.099246 -0.322339
C133  C     C_3   0.568158 0.818229 0.115047 -0.392538
C134  C     C_3   0.625044 0.748844 0.131298 -0.830828
H64   H     H_    0.667186 0.723944 0.108285 0.283912
H65   H     H_    0.663945 0.773601 0.155500 0.268895
H66   H     H_    0.585769 0.696301 0.142487 0.243918
H67   H     H_    0.525236 0.838886 0.138519 0.217657
H68   H     H_    0.529135 0.791632 0.091272 0.239269
H69   H     H_    0.663159 0.863953 0.077510 0.245153
H70   H     H_    0.661404 0.919126 0.122134 0.258150
C135  C     C_3   0.864527 0.588190 0.899244 -0.361906
C136  C     C_3   0.807406 0.516269 0.884864 -0.410724
C137  C     C_3   0.723278 0.549521 0.869778 -0.863052
H71   H     H_    0.687308 0.579563 0.893649 0.271725
H72   H     H_    0.733762 0.595924 0.846086 0.263983
H73   H     H_    0.685373 0.496507 0.858210 0.257424
H74   H     H_    0.837796 0.481078 0.860952 0.215052
H75   H     H_    0.795157 0.471454 0.909061 0.238058
H76   H     H_    0.824796 0.624740 0.919353 0.237398
H77   H     H_    0.881398 0.630885 0.874935 0.245570
C138  C     C_3   0.157305 0.455679 0.105196 -0.388186
C139  C     C_3   0.194350 0.539903 0.119048 -0.378100
C140  C     C_3   0.273415 0.525924 0.143518 -0.860031
H78   H     H_    0.258029 0.488202 0.169768 0.251731
H79   H     H_    0.322418 0.492555 0.126409 0.271548
H80   H     H_    0.299052 0.587656 0.152858 0.258252
H81   H     H_    0.210868 0.579176 0.093402 0.251517
H82   H     H_    0.148598 0.575838 0.136686 0.246722
H83   H     H_    0.146542 0.412475 0.130095 0.229792
H84   H     H_    0.207837 0.427922 0.087615 0.251044
C141  C     C_3   0.624491 0.896985 0.901038 -0.323638
C142  C     C_3   0.575163 0.821281 0.885137 -0.379856
C143  C     C_3   0.634534 0.757563 0.866437 -0.849627
H85   H     H_    0.667481 0.786527 0.841315 0.271531
H86   H     H_    0.682076 0.735379 0.887817 0.282055
H87   H     H_    0.597836 0.702617 0.856019 0.250198
H88   H     H_    0.540783 0.790089 0.909315 0.238930
H89   H     H_    0.528222 0.840816 0.863078 0.219692
H90   H     H_    0.664681 0.925878 0.878329 0.258856
H91   H     H_    0.668288 0.869704 0.922707 0.239996
C144  C     C_3   0.382438 0.114432 0.100551 -0.320419
C145  C     C_3   0.436372 0.185764 0.117608 -0.393300
C146  C     C_3   0.381056 0.255271 0.134638 -0.812029
H92   H     H_    0.340272 0.283413 0.111809 0.295456
H93   H     H_    0.340815 0.229521 0.158206 0.264213
H94   H     H_    0.421525 0.305611 0.146879 0.240345
H95   H     H_    0.478297 0.162121 0.140940 0.215480
H96   H     H_    0.476524 0.213240 0.094383 0.242602
H97   H     H_    0.340823 0.145798 0.079169 0.251561
H98   H     H_    0.340643 0.086627 0.122939 0.256159
C147  C     C_3   0.041113 0.342300 0.904534 -0.322348
C148  C     C_3   0.952310 0.304780 0.898793 -0.366879
C149  C     C_3   0.906117 0.291983 0.937284 -0.758907
H99   H     H_    0.943819 0.251465 0.957090 0.291556
H100  H     H_    0.893956 0.353511 0.951464 0.245199
H101  H     H_    0.844619 0.260882 0.931864 0.266496
H102  H     H_    0.912604 0.344924 0.879820 0.233153
H103  H     H_    0.958771 0.242634 0.884341 0.245145
H104  H     H_    0.078596 0.339470 0.877444 0.216720
H105  H     H_    0.072601 0.297576 0.924259 0.242875
C150  C     C_3   0.857051 0.567913 0.099784 -0.382507
C151  C     C_3   0.808021 0.488882 0.112250 -0.387420
C152  C     C_3   0.723551 0.512402 0.130502 -0.861865
H106  H     H_    0.733625 0.552124 0.156563 0.257732
H107  H     H_    0.683768 0.547321 0.109341 0.269470
H108  H     H_    0.689719 0.454310 0.139400 0.258327
H109  H     H_    0.796342 0.448643 0.086472 0.244012
H110  H     H_    0.844109 0.451242 0.133686 0.233524
H111  H     H_    0.867458 0.610162 0.124926 0.241365
H112  H     H_    0.814795 0.601330 0.079447 0.239146
N1    N     N_R   0.217183 0.424334 0.459203 0.232385
O53   O     O_R   0.240440 0.481862 0.434480 -0.309775
O54   O     O_R   0.261404 0.355573 0.462237 -0.305772
N2    N     N_R   0.782818 0.575670 0.540798 0.232394
O55   O     O_R   0.738597 0.644432 0.537763 -0.305715
O56   O     O_R   0.759560 0.518142 0.565520 -0.309610
N3    N     N_R   0.611061 0.200847 0.458657 0.232253
O57   O     O_R   0.558167 0.233374 0.433926 -0.312016
O58   O     O_R   0.686219 0.232842 0.461533 -0.312940
N4    N     N_R   0.388938 0.799154 0.541343 0.232252
O59   O     O_R   0.313780 0.767159 0.538467 -0.312984
O60   O     O_R   0.441832 0.766626 0.566074 -0.311910
N5    N     N_R   0.782859 0.575714 0.458877 0.232366
O61   O     O_R   0.759606 0.518196 0.434312 -0.309470
O62   O     O_R   0.738658 0.644490 0.461685 -0.305957
N6    N     N_R   0.217139 0.424282 0.541124 0.232382
O63   O     O_R   0.261336 0.355504 0.538315 -0.305905
O64   O     O_R   0.240392 0.481798 0.565689 -0.309416
N7    N     N_R   0.389266 0.798721 0.459496 0.232188
O65   O     O_R   0.442262 0.766109 0.434949 -0.311453
O66   O     O_R   0.314188 0.766558 0.462488 -0.312345
N8    N     N_R   0.610736 0.201278 0.540505 0.232196
O67   O     O_R   0.685814 0.233440 0.537512 -0.312296
O68   O     O_R   0.557740 0.233891 0.565051 -0.311285
N9    N     N_R   0.729489 0.987085 0.959317 0.217550
O69   O     O_R   0.791285 0.933755 0.962913 -0.241337
O70   O     O_R   0.735965 0.047958 0.934136 -0.380471
N10   N     N_R   0.272504 0.035646 0.041059 0.223119
O71   O     O_R   0.260201 0.974858 0.065806 -0.348240
O72   O     O_R   0.216825 0.095587 0.038238 -0.246642
N11   N     N_R   0.185548 0.357563 0.958952 0.209802
O73   O     O_R   0.224450 0.396975 0.931087 -0.410253
O74   O     O_R   0.202198 0.278321 0.965031 -0.300646
N12   N     N_R   0.892671 0.704873 0.042280 0.239147
O75   O     O_R   0.815966 0.733185 0.039149 -0.333798
O76   O     O_R   0.942413 0.737337 0.068237 -0.319954
N13   N     N_R   0.272417 0.030693 0.959089 0.220772
O77   O     O_R   0.213475 0.087275 0.962170 -0.266716
O78   O     O_R   0.262644 0.969283 0.934601 -0.350355
N14   N     N_R   0.729069 0.980954 0.041658 0.221018
O79   O     O_R   0.737837 0.040783 0.067037 -0.359216
O80   O     O_R   0.787600 0.923906 0.038687 -0.238132
N15   N     N_R   0.906696 0.713072 0.960575 0.231233
O81   O     O_R   0.961678 0.742275 0.935999 -0.320771
O82   O     O_R   0.834680 0.751487 0.964185 -0.305582
N16   N     N_R   0.165559 0.333091 0.040433 0.224311
O83   O     O_R   0.125693 0.283791 0.064393 -0.331411
O84   O     O_R   0.246721 0.324788 0.036330 -0.357047

loop_
_geom_bond_atom_site_label_1
_geom_bond_atom_site_label_2
_geom_bond_distance
_ccdc_geom_bond_type
C131  H58   1.110833 S    
C133  H67   1.108064 S    
N11   O74   1.301602 A    
C120  C121  1.538869 S    
Zn5   O51   1.911087 S    
C43   C71   1.416306 A    
C107  H2    1.110980 S    
N1    O53   1.301347 A    
C145  H96   1.111969 S    
N9    O69   1.300144 A    
C139  C140  1.527103 S    
Zn3   O38   1.910830 S    
C41   C105  1.531688 S    
Zn5   O20   1.946979 S    
C122  H38   1.110472 S    
C111  H20   1.109964 S    
C127  C128  1.526721 S    
C136  C137  1.525320 S    
C21   C26   1.421442 S    
Zn13  O35   1.911087 S    
O34   C22   1.273927 A    
Zn14  O36   1.911087 S    
C79   C103  1.419086 A    
C151  C152  1.527183 S    
Zn3   O3    1.936848 S    
C46   C120  1.531677 S    
C79   C87   1.419820 A    
C72   C84   1.414107 A    
C113  H17   1.110673 S    
Zn3   O45   1.913807 S    
C20   C27   1.419823 S    
C139  H82   1.106180 S    
C45   C65   1.414916 A    
C128  H50   1.110872 S    
C108  H14   1.109293 S    
C68   C84   1.413990 A    
C67   C91   1.418427 A    
C12   C35   1.422076 S    
C150  C151  1.537731 S    
C92   C95   1.411675 A    
C42   C70   1.414898 A    
Zn1   O44   1.914005 S    
N4    O59   1.300841 A    
O22   C10   1.275340 A    
Zn3   O18   1.945749 S    
C148  C149  1.529465 S    
C108  C109  1.538872 S    
Zn8   O41   1.912238 S    
C117  H35   1.105181 S    
O40   C18   1.276239 A    
C144  C145  1.538885 S    
C78   C86   1.410303 A    
C65   C81   1.412708 A    
C70   C94   1.418175 A    
O17   C5    1.284816 A    
C42   C108  1.531686 S    
C52   C80   1.422554 A    
Zn7   O3    1.930935 S    
O9    C1    1.270107 A    
O11   C3    1.270027 A    
C120  H42   1.109292 S    
C22   C25   1.421464 S    
C144  H97   1.106273 S    
C129  H62   1.108792 S    
C100  N12   1.438446 S    
Zn13  O4    1.933243 S    
Zn14  O3    1.933240 S    
Zn15  O26   1.912238 S    
N2    O55   1.300812 A    
N15   O81   1.301305 A    
O44   C22   1.273651 A    
C138  H84   1.097942 S    
C92   N4    1.439138 S    
C140  H79   1.110984 S    
C118  H33   1.107857 S    
C121  H39   1.107857 S    
C69   C93   1.418178 A    
C130  H60   1.111974 S    
C102  N14   1.438835 S    
N6    O63   1.300814 A    
Zn15  O33   1.914829 S    
C113  H15   1.111138 S    
Zn4   O4    1.936846 S    
C111  C112  1.538857 S    
C128  H52   1.110670 S    
C87   C88   1.409091 A    
C100  C103  1.409810 A    
N16   O83   1.301242 A    
C83   C84   1.405629 A    
C126  C127  1.538857 S    
C101  N13   1.439482 S    
Zn15  O2    1.930935 S    
O38   C20   1.275255 A    
Zn11  O2    1.936848 S    
Zn16  O5    1.948704 S    
O27   C15   1.273620 A    
C44   C72   1.416309 A    
N7    O65   1.301353 A    
C147  C148  1.543574 S    
C143  H86   1.110678 S    
N14   O79   1.301297 A    
C97   N9    1.439753 S    
C135  H77   1.109468 S    
O46   C12   1.275547 A    
C9    C38   1.419840 S    
C129  C130  1.538700 S    
O14   C6    1.265762 A    
C110  H9    1.111193 S    
C16   C39   1.421456 S    
C89   N1    1.439104 S    
C109  C110  1.527374 S    
C56   C64   1.412087 A    
O43   C21   1.273630 A    
C152  H107  1.110926 S    
C18   C29   1.422011 S    
C106  C107  1.527372 S    
C96   N8    1.439174 S    
C49   C129  1.532730 S    
C52   C138  1.533082 S    
C112  H19   1.107896 S    
C50   C132  1.533026 S    
C133  C134  1.528060 S    
C146  H93   1.110978 S    
C51   C63   1.412017 A    
C49   C61   1.421295 A    
C123  C124  1.538856 S    
C132  H69   1.106831 S    
C114  H27   1.104172 S    
N10   O71   1.301268 A    
C122  H36   1.110982 S    
C116  H23   1.111136 S    
C26   C39   1.197782 T    
C126  H55   1.104259 S    
C127  H53   1.107907 S    
C136  H74   1.107657 S    
C137  H73   1.110415 S    
Zn12  O30   1.913805 S    
C119  H31   1.110471 S    
C151  H109  1.111997 S    
O5    C1    1.270355 A    
O31   C19   1.276154 A    
C76   C88   1.413199 A    
C141  C142  1.537889 S    
C27   C38   1.196815 T    
C74   C98   1.418740 A    
C75   C87   1.410666 A    
N11   O73   1.301360 A    
C46   C66   1.414917 A    
O37   C19   1.275221 A    
C124  H47   1.107910 S    
C74   C86   1.410389 A    
C134  H65   1.111037 S    
C75   C99   1.419374 A    
C42   C58   1.416826 A    
C56   C150  1.530278 S    
C66   C90   1.418167 A    
O51   C13   1.273724 A    
C23   C32   1.419386 S    
C125  H45   1.110669 S    
C109  H12   1.112000 S    
C141  H90   1.108694 S    
C106  H5    1.107862 S    
O8    C4    1.270059 A    
C123  H48   1.109967 S    
C148  H102  1.107682 S    
Zn4   O17   1.945750 S    
C145  C146  1.527975 S    
C149  H101  1.110369 S    
C133  H68   1.111952 S    
O48   C10   1.276047 A    
O16   C8    1.271083 A    
C93   N5    1.439098 S    
C72   C96   1.418376 A    
Zn1   O1    1.932597 S    
O52   C14   1.273730 A    
C71   C95   1.418378 A    
C142  H88   1.111955 S    
C73   C85   1.409688 A    
C47   C67   1.416130 A    
O45   C11   1.275514 A    
C89   C94   1.410782 A    
C71   C83   1.414107 A    
C32   C33   1.196533 T    
C122  H37   1.111196 S    
N14   O80   1.300578 A    
C65   C89   1.418167 A    
C11   C36   1.422048 S    
C68   C92   1.418426 A    
C123  H49   1.104257 S    
C115  C116  1.526720 S    
N8    O67   1.300833 A    
C138  C139  1.539030 S    
C91   C96   1.411675 A    
C150  H112  1.104045 S    
O42   C24   1.274220 A    
Zn16  O25   1.912238 S    
O6    C2    1.270353 A    
C24   C31   1.419349 S    
C113  H16   1.110873 S    
C28   C37   1.196806 T    
C95   N7    1.439174 S    
Zn4   O37   1.910831 S    
Zn5   O40   1.915619 S    
C137  H71   1.110296 S    
C147  H105  1.100932 S    
C121  C122  1.527369 S    
C132  C133  1.538626 S    
C117  C118  1.538870 S    
Zn16  O34   1.914831 S    
C25   C40   1.197783 T    
C142  C143  1.525896 S    
N4    O60   1.301355 A    
Zn5   O1    1.933243 S    
C51   C79   1.420482 A    
C30   C35   1.198121 T    
Zn4   O46   1.913805 S    
C53   C141  1.532496 S    
C15   C40   1.421428 S    
C49   C77   1.413151 A    
Zn12  O21   1.910831 S    
N12   O75   1.301062 A    
Zn13  O24   1.915619 S    
C90   C93   1.410782 A    
O35   C23   1.273825 A    
Zn14  O23   1.915621 S    
C117  H34   1.109291 S    
Zn15  O6    1.948705 S    
C103  N15   1.440096 S    
Zn16  O1    1.930933 S    
C115  H25   1.107895 S    
C55   C147  1.534796 S    
C125  H43   1.111137 S    
O32   C20   1.276113 A    
Zn13  O12   1.946979 S    
Zn14  O11   1.946979 S    
N5    O62   1.300813 A    
C112  C113  1.526721 S    
C131  H59   1.110366 S    
C105  H6    1.109295 S    
C149  H99   1.110781 S    
N9    O70   1.301418 A    
Zn7   O14   1.948705 S    
O12   C4    1.270031 A    
Zn6   O39   1.915621 S    
C120  H41   1.105180 S    
C107  H3    1.110472 S    
N1    O54   1.300812 A    
C145  H95   1.107948 S    
C77   C101  1.417947 A    
C54   C144  1.532725 S    
O7    C3    1.270060 A    
N2    O56   1.301347 A    
O33   C21   1.273929 A    
C143  H85   1.110690 S    
C98   N10   1.438549 S    
C138  H83   1.110639 S    
C116  H22   1.110875 S    
O21   C9    1.275328 A    
C111  H21   1.104171 S    
C4    C58   1.465638 S    
O23   C11   1.276202 A    
O39   C17   1.276240 A    
Zn11  O22   1.910830 S    
C140  H78   1.111174 S    
C50   C62   1.420070 A    
C121  H40   1.112001 S    
Zn7   O49   1.914829 S    
Zn9   O4    1.932597 S    
O15   C7    1.270558 A    
N3    O57   1.301354 A    
C130  H61   1.107887 S    
Zn10  O3    1.932595 S    
O25   C13   1.274327 A    
N6    O64   1.301343 A    
Zn8   O4    1.930933 S    
C43   C111  1.530046 S    
C139  H81   1.112061 S    
Zn9   O31   1.912971 S    
C128  H51   1.111137 S    
Zn10  O32   1.912971 S    
O10   C2    1.270105 A    
Zn11  O29   1.913807 S    
C124  C125  1.526723 S    
Zn8   O13   1.948704 S    
N16   O84   1.302078 A    
C47   C123  1.530049 S    
C104  N16   1.437148 S    
C97   C102  1.409339 A    
O41   C23   1.274245 A    
C55   C63   1.418953 A    
Zn2   O43   1.914003 S    
C73   C97   1.416916 A    
C53   C61   1.421153 A    
O28   C16   1.273645 A    
N7    O66   1.300833 A    
C99   C104  1.408312 A    
C48   C68   1.416132 A    
C135  H76   1.103032 S    
C81   C82   1.404159 A    
C110  H8    1.110982 S    
C67   C83   1.413990 A    
C152  H106  1.111182 S    
C44   C60   1.414264 A    
C29   C36   1.198126 T    
C31   C34   1.196539 T    
C45   C57   1.416826 A    
C1    C59   1.465414 S    
C146  H92   1.111075 S    
C3    C57   1.465639 S    
C80   C88   1.420569 A    
C44   C114  1.530049 S    
C144  H98   1.108918 S    
C129  H63   1.106781 S    
C114  C115  1.538857 S    
C5    C63   1.481627 S    
Zn8   O50   1.914831 S    
C6    C64   1.462553 S    
Zn2   O2    1.932595 S    
O26   C14   1.274291 A    
C45   C117  1.531678 S    
C119  H29   1.111196 S    
N10   O72   1.300937 A    
C105  C106  1.538873 S    
C70   C82   1.412694 A    
O19   C7    1.272112 A    
C130  C131  1.527184 S    
C127  H54   1.112065 S    
C76   C100  1.416696 A    
C10   C37   1.419850 S    
C136  H75   1.112202 S    
C137  H72   1.111073 S    
C140  H80   1.110523 S    
C118  H32   1.112001 S    
C119  H30   1.110981 S    
C94   N6    1.439099 S    
O49   C15   1.273925 A    
O13   C5    1.265367 A    
C151  H110  1.107769 S    
C66   C82   1.412708 A    
C47   C59   1.414231 A    
C41   C69   1.414902 A    
C17   C30   1.421982 S    
O20   C8    1.270457 A    
C107  H1    1.111195 S    
O24   C12   1.276196 A    
C134  H64   1.111147 S    
Zn7   O42   1.912238 S    
C77   C85   1.409869 A    
Zn6   O52   1.911087 S    
C48   C126  1.530049 S    
C90   N2    1.439104 S    
C85   C86   1.400589 A    
C99   N11   1.440904 S    
C125  H44   1.110871 S    
C69   C81   1.412696 A    
C8    C62   1.466595 S    
Zn1   O47   1.912971 S    
Zn2   O48   1.912971 S    
C143  H87   1.110310 S    
C13   C34   1.419372 S    
N15   O82   1.300619 A    
C148  H103  1.111520 S    
Zn6   O2    1.933240 S    
C149  H100  1.110554 S    
C50   C78   1.410829 A    
C91   N3    1.439138 S    
C118  C119  1.527368 S    
C110  H10   1.110470 S    
Zn11  O10   1.945749 S    
Zn1   O16   1.947302 S    
Zn2   O15   1.947302 S    
C152  H108  1.110417 S    
O29   C17   1.275435 A    
C142  H89   1.107615 S    
C51   C135  1.534668 S    
C112  H18   1.112066 S    
C146  H94   1.110404 S    
C19   C28   1.419805 S    
C53   C73   1.411196 A    
C135  C136  1.542112 S    
C41   C57   1.416827 A    
C132  H70   1.108795 S    
N3    O58   1.300842 A    
O18   C6    1.272690 A    
N8    O68   1.301353 A    
C78   C102  1.417213 A    
C43   C59   1.414264 A    
C114  H28   1.109962 S    
C150  H111  1.110340 S    
C54   C74   1.413274 A    
C55   C75   1.414298 A    
C131  H57   1.110898 S    
N13   O77   1.300431 A    
O47   C9    1.276049 A    
C116  H24   1.110672 S    
C2    C60   1.465414 S    
Zn9   O28   1.914005 S    
C126  H56   1.109967 S    
Zn10  O27   1.914003 S    
C52   C64   1.414129 A    
C147  H104  1.108522 S    
C108  H13   1.105192 S    
C105  H7    1.105189 S    
Zn9   O8    1.947302 S    
Zn10  O7    1.947302 S    
Zn6   O19   1.946979 S    
Zn12  O9    1.945750 S    
N5    O61   1.301345 A    
Zn12  O1    1.936846 S    
C80   C104  1.421648 A    
C14   C33   1.419341 S    
C124  H46   1.112065 S    
C134  H66   1.110414 S    
N12   O76   1.301320 A    
O36   C24   1.273820 A    
O50   C16   1.273915 A    
C98   C101  1.410591 A    
C48   C60   1.414230 A    
C115  H26   1.112067 S    
C46   C58   1.416830 A    
C109  H11   1.107863 S    
C56   C76   1.413504 A    
N13   O78   1.301344 A    
C141  H91   1.106975 S    
C106  H4    1.111999 S    
C54   C62   1.421266 A    
C7    C61   1.468982 S    
O30   C18   1.275454 A    
