data_mof_unit_1129.cif
_audit_creation_date              2012-12-10T17:18:24-0500
_audit_creation_method            fapswitch 2.2
_symmetry_space_group_name_H-M    P1
_symmetry_Int_Tables_number       1
_space_group_crystal_system       triclinic
_cell_length_a                    21.681249
_cell_length_b                    21.707809
_cell_length_c                    30.284691
_cell_angle_alpha                 90.038352
_cell_angle_beta                  90.03264
_cell_angle_gamma                 90.040101
_cell_volume                      14253.5538702

loop_
_atom_site_label
_atom_site_type_symbol
_atom_type_description
_atom_site_fract_x
_atom_site_fract_y
_atom_site_fract_z
_atom_type_partial_charge
C1    C     C_R   0.500010 0.119284 0.499970 0.732650
C2    C     C_R   0.119200 0.500017 0.500018 0.800953
C3    C     C_R   0.499981 0.880717 0.500028 0.732685
C4    C     C_R   0.880802 0.499984 0.500021 0.800969
C5    C     C_R   0.000013 0.619289 0.000000 0.731656
C6    C     C_R   0.619184 0.000023 0.000094 0.799292
C7    C     C_R   0.999984 0.380709 0.999990 0.731588
C8    C     C_R   0.380845 0.999962 0.000323 0.793549
C9    C     C_R   0.500880 0.999729 0.774103 -0.033237
C10   C     C_R   0.999941 0.499882 0.772401 -0.033270
C11   C     C_R   0.500217 0.999471 0.225940 -0.030121
C12   C     C_R   0.000016 0.500062 0.227599 -0.033251
C13   C     C_R   0.000002 0.500048 0.274101 -0.030705
C14   C     C_R   0.500166 0.999543 0.272409 -0.033856
C15   C     C_R   0.999948 0.499920 0.725901 -0.030677
C16   C     C_R   0.500658 0.000048 0.727607 -0.034783
C17   C     C_R   0.387637 0.992320 0.774045 -0.064951
C18   C     C_R   0.888051 0.517616 0.772450 -0.070409
C19   C     C_R   0.613886 0.009681 0.773860 -0.067116
C20   C     C_R   0.111818 0.482074 0.772522 -0.070391
C21   C     C_R   0.387066 0.006781 0.225933 -0.067253
C22   C     C_R   0.888148 0.482005 0.227445 -0.070441
C23   C     C_R   0.613278 0.991242 0.226052 -0.066856
C24   C     C_R   0.111867 0.518217 0.227593 -0.070432
C25   C     C_R   0.887201 0.487756 0.273959 -0.066517
C26   C     C_R   0.387857 0.014091 0.272335 -0.070264
C27   C     C_R   0.112791 0.512402 0.274099 -0.066526
C28   C     C_R   0.612395 0.984449 0.272510 -0.070117
C29   C     C_R   0.887124 0.511830 0.725935 -0.066538
C30   C     C_R   0.388329 0.985438 0.727637 -0.075613
C31   C     C_R   0.112762 0.487948 0.726020 -0.066505
C32   C     C_R   0.612787 0.016134 0.727386 -0.070125
C33   C     C_R   0.554238 0.220632 0.488143 -0.007756
C34   C     C_R   0.220284 0.446742 0.514076 0.000848
C35   C     C_R   0.445732 0.779336 0.488247 -0.007658
C36   C     C_R   0.779747 0.553241 0.514184 0.000973
C37   C     C_R   0.554173 0.779435 0.511915 -0.007698
C38   C     C_R   0.220329 0.553340 0.486006 0.000881
C39   C     C_R   0.445795 0.220607 0.511715 -0.007593
C40   C     C_R   0.779652 0.446669 0.485964 0.000750
C41   C     C_R   0.054483 0.720659 0.988749 -0.007442
C42   C     C_R   0.720166 0.947152 0.015111 0.001558
C43   C     C_R   0.945508 0.279306 0.988754 -0.007400
C44   C     C_R   0.279967 0.051600 0.017829 -0.003684
C45   C     C_R   0.054460 0.279415 0.011250 -0.006877
C46   C     C_R   0.720311 0.052940 0.985516 0.000995
C47   C     C_R   0.945556 0.720614 0.011221 -0.007168
C48   C     C_R   0.279797 0.948015 0.984228 0.002620
C49   C     C_R   0.500012 0.187262 0.499931 -0.113013
C50   C     C_R   0.187071 0.500041 0.500041 -0.104123
C51   C     C_R   0.499951 0.812741 0.500080 -0.112992
C52   C     C_R   0.812932 0.499958 0.500063 -0.104032
C53   C     C_R   0.000023 0.687284 0.999993 -0.113415
C54   C     C_R   0.687031 0.000057 0.000265 -0.101996
C55   C     C_R   0.999973 0.312709 0.000002 -0.113280
C56   C     C_R   0.313046 0.999841 0.000889 -0.114961
C57   C     C_R   0.500032 0.000062 0.585859 0.856340
C58   C     C_R   0.999986 0.500014 0.585451 0.935297
C59   C     C_R   0.499997 0.999934 0.414137 0.855869
C60   C     C_R   0.999990 0.499985 0.414550 0.935600
C61   C     C_R   0.000015 0.500002 0.085852 0.857263
C62   C     C_R   0.500038 0.999977 0.085474 0.928440
C63   C     C_R   0.999984 0.499969 0.914147 0.857104
C64   C     C_R   0.500954 0.999921 0.914560 0.930860
C65   C     C_R   0.553167 0.284581 0.487898 -0.237629
C66   C     C_R   0.284353 0.447921 0.514109 -0.226501
C67   C     C_R   0.446833 0.715389 0.487979 -0.237864
C68   C     C_R   0.715677 0.552055 0.514239 -0.226587
C69   C     C_R   0.553094 0.715488 0.512151 -0.237652
C70   C     C_R   0.284398 0.552131 0.485893 -0.226412
C71   C     C_R   0.446903 0.284551 0.511975 -0.238005
C72   C     C_R   0.715584 0.447864 0.485879 -0.226417
C73   C     C_R   0.053425 0.784603 0.988541 -0.237851
C74   C     C_R   0.784260 0.948236 0.015027 -0.227801
C75   C     C_R   0.946572 0.215362 0.988580 -0.237880
C76   C     C_R   0.215822 0.050470 0.017504 -0.224728
C77   C     C_R   0.053424 0.215475 0.011460 -0.238767
C78   C     C_R   0.784370 0.051619 0.985269 -0.226451
C79   C     C_R   0.946610 0.784557 0.011398 -0.238225
C80   C     C_R   0.215761 0.949516 0.983638 -0.228941
C81   C     C_R   0.500042 0.315759 0.499948 -0.018809
C82   C     C_R   0.315595 0.500012 0.499973 -0.019778
C83   C     C_R   0.499972 0.684244 0.500050 -0.018869
C84   C     C_R   0.684408 0.499970 0.500040 -0.019750
C85   C     C_R   0.000014 0.815767 0.999963 -0.018114
C86   C     C_R   0.815553 0.999848 0.000012 -0.020025
C87   C     C_R   0.999998 0.184232 0.000034 -0.017548
C88   C     C_R   0.184532 0.000204 0.000178 -0.022256
C89   C     C_R   0.381552 0.500012 0.499990 0.793816
C90   C     C_R   0.499992 0.618400 0.500014 0.797817
C91   C     C_R   0.618449 0.499988 0.500011 0.793693
C92   C     C_R   0.500044 0.381601 0.499986 0.797829
C93   C     C_R   0.881537 0.999865 0.999995 0.793822
C94   C     C_R   0.000010 0.118396 0.000012 0.798166
C95   C     C_R   0.118491 0.000187 0.000028 0.793446
C96   C     C_R   0.000016 0.881604 0.999987 0.798533
C97   C     C_R   0.556387 0.989395 0.843656 0.316025
C98   C     C_R   0.051038 0.477023 0.841968 0.348390
C99   C     C_R   0.445960 0.009183 0.843721 0.281921
C100  C     C_R   0.948831 0.522721 0.841946 0.348479
C101  C     C_R   0.555137 0.011324 0.156430 0.312656
C102  C     C_R   0.051121 0.522991 0.158068 0.348334
C103  C     C_R   0.445434 0.987261 0.156438 0.308931
C104  C     C_R   0.948947 0.477068 0.158011 0.348518
C105  C     C_R   0.055412 0.490976 0.343710 0.312701
C106  C     C_R   0.551623 0.977877 0.341966 0.349306
C107  C     C_R   0.944570 0.509021 0.343671 0.312742
C108  C     C_R   0.448483 0.021472 0.341834 0.349048
C109  C     C_R   0.055364 0.509210 0.656350 0.312655
C110  C     C_R   0.551752 0.022286 0.658005 0.349294
C111  C     C_R   0.944563 0.490752 0.656278 0.312545
C112  C     C_R   0.448756 0.978241 0.658160 0.349526
C113  C     C_R   0.501238 0.999603 0.866448 -0.241097
C114  C     C_R   0.999948 0.499904 0.865316 -0.270737
C115  C     C_R   0.500144 0.999800 0.133620 -0.238502
C116  C     C_R   0.000037 0.500013 0.134683 -0.270733
C117  C     C_R   0.999985 0.499962 0.366440 -0.236544
C118  C     C_R   0.500033 0.999775 0.365288 -0.271602
C119  C     C_R   0.999964 0.500031 0.633563 -0.236548
C120  C     C_R   0.500176 0.000173 0.634702 -0.271761
C121  C     C_R   0.444033 0.999743 0.797482 -0.034631
C122  C     C_R   0.944753 0.512708 0.795742 -0.062953
C123  C     C_R   0.557901 0.999941 0.797368 -0.049067
C124  C     C_R   0.055120 0.487016 0.795774 -0.062919
C125  C     C_R   0.443375 0.998335 0.202600 -0.048179
C126  C     C_R   0.944850 0.487073 0.204209 -0.062901
C127  C     C_R   0.557090 0.000244 0.202635 -0.049037
C128  C     C_R   0.055192 0.513063 0.204276 -0.062946
C129  C     C_R   0.943106 0.498391 0.297411 -0.048658
C130  C     C_R   0.444651 0.011059 0.295680 -0.062829
C131  C     C_R   0.056886 0.501685 0.297472 -0.048615
C132  C     C_R   0.555596 0.988017 0.295787 -0.062968
C133  C     C_R   0.943058 0.501382 0.702536 -0.048653
C134  C     C_R   0.445092 0.988448 0.704330 -0.061538
C135  C     C_R   0.056846 0.498488 0.702588 -0.048613
C136  C     C_R   0.555930 0.012086 0.704179 -0.062738
Cu1   Cu    Cu3+1 0.438190 1.000000 0.500000 1.007149
Cu2   Cu    Cu3+1 1.000000 0.561810 0.500000 0.945831
Cu3   Cu    Cu3+1 0.561810 1.000000 0.500000 1.007645
Cu4   Cu    Cu3+1 1.000000 0.438190 0.500000 0.945875
Cu5   Cu    Cu3+1 0.938190 0.500000 0.000000 1.008666
Cu6   Cu    Cu3+1 0.500000 0.061810 0.000000 0.951095
Cu7   Cu    Cu3+1 0.061810 0.500000 0.000000 1.009470
Cu8   Cu    Cu3+1 0.500000 0.938190 0.000000 0.946476
Cu9   Cu    Cu3+1 0.500000 0.500000 0.455560 0.926007
Cu10  Cu    Cu3+1 0.500000 0.500000 0.544440 0.925734
Cu11  Cu    Cu3+1 0.000000 0.000000 0.955560 0.924939
Cu12  Cu    Cu3+1 0.000000 0.000000 0.044440 0.924953
H1    H     H_    0.594147 0.310308 0.478687 0.127120
H2    H     H_    0.310171 0.407879 0.525015 0.124327
H3    H     H_    0.405869 0.689634 0.478710 0.127236
H4    H     H_    0.689881 0.592091 0.525198 0.124281
H5    H     H_    0.594071 0.689813 0.521395 0.127175
H6    H     H_    0.310247 0.592181 0.474994 0.124264
H7    H     H_    0.405944 0.310256 0.521209 0.127299
H8    H     H_    0.689719 0.407825 0.474922 0.124295
H9    H     H_    0.094588 0.810336 0.979767 0.126869
H10   H     H_    0.810048 0.908516 0.026547 0.124406
H11   H     H_    0.905406 0.189605 0.979791 0.126700
H12   H     H_    0.189943 0.089154 0.030626 0.124765
H13   H     H_    0.094610 0.189815 0.020239 0.125730
H14   H     H_    0.810225 0.091350 0.973795 0.124687
H15   H     H_    0.905448 0.810252 0.020171 0.126543
H16   H     H_    0.189956 0.910654 0.970622 0.126245
O1    O     O_R   0.447800 0.090100 0.499990 -0.581172
O2    O     O_R   0.090100 0.552200 0.499990 -0.587464
O3    O     O_R   0.552200 0.909900 0.499990 -0.580981
O4    O     O_R   0.909900 0.447800 0.499990 -0.587448
O5    O     O_R   0.447800 0.909900 0.500010 -0.581094
O6    O     O_R   0.090100 0.447800 0.500010 -0.587615
O7    O     O_R   0.552200 0.090100 0.500010 -0.580784
O8    O     O_R   0.909900 0.552200 0.500010 -0.587646
O9    O     O_R   0.947800 0.590100 0.999990 -0.579975
O10   O     O_R   0.590100 0.052200 0.999990 -0.586870
O11   O     O_R   0.052200 0.409900 0.999990 -0.579249
O12   O     O_R   0.409900 0.947800 0.999990 -0.581995
O13   O     O_R   0.947800 0.409900 0.000010 -0.580010
O14   O     O_R   0.590100 0.947800 0.000010 -0.588551
O15   O     O_R   0.052200 0.590100 0.000010 -0.579898
O16   O     O_R   0.409900 0.052200 0.000010 -0.584103
O17   O     O_R   0.447790 0.999890 0.564870 -0.544327
O18   O     O_R   0.999890 0.552210 0.564870 -0.605988
O19   O     O_R   0.552210 0.000110 0.564870 -0.544300
O20   O     O_R   0.000110 0.447790 0.564870 -0.605892
O21   O     O_R   0.447790 0.000110 0.435130 -0.544336
O22   O     O_R   0.999890 0.447790 0.435130 -0.605889
O23   O     O_R   0.552210 0.999890 0.435130 -0.544243
O24   O     O_R   0.000110 0.552210 0.435130 -0.605931
O25   O     O_R   0.947790 0.499890 0.064870 -0.544772
O26   O     O_R   0.499890 0.052210 0.064870 -0.607828
O27   O     O_R   0.052210 0.500110 0.064870 -0.544613
O28   O     O_R   0.500110 0.947790 0.064870 -0.604012
O29   O     O_R   0.947790 0.500110 0.935130 -0.544722
O30   O     O_R   0.499890 0.947790 0.935130 -0.604931
O31   O     O_R   0.052210 0.499890 0.935130 -0.544645
O32   O     O_R   0.500110 0.052210 0.935130 -0.597196
O33   O     O_R   0.409730 0.499930 0.462460 -0.589569
O34   O     O_R   0.499930 0.590270 0.462460 -0.588280
O35   O     O_R   0.590270 0.500070 0.462460 -0.589516
O36   O     O_R   0.500070 0.409730 0.462460 -0.588259
O37   O     O_R   0.409730 0.500070 0.537540 -0.589561
O38   O     O_R   0.499930 0.409730 0.537540 -0.588340
O39   O     O_R   0.590270 0.499930 0.537540 -0.589692
O40   O     O_R   0.500070 0.590270 0.537540 -0.588282
O41   O     O_R   0.909730 0.999930 0.962460 -0.589813
O42   O     O_R   0.999930 0.090270 0.962460 -0.588102
O43   O     O_R   0.090270 0.000070 0.962460 -0.591080
O44   O     O_R   0.000070 0.909730 0.962460 -0.588058
O45   O     O_R   0.909730 0.000070 0.037540 -0.590005
O46   O     O_R   0.999930 0.909730 0.037540 -0.588053
O47   O     O_R   0.090270 0.999930 0.037540 -0.590163
O48   O     O_R   0.000070 0.090270 0.037540 -0.588273
C137  C     C_R   0.327544 0.986878 0.797464 0.205560
C138  C     C_R   0.283430 0.034089 0.794456 -0.135617
C139  C     C_R   0.226206 0.027720 0.815224 -0.152548
C140  C     C_R   0.212550 0.974184 0.838904 -0.109056
C141  C     C_R   0.255824 0.926645 0.841410 -0.151104
C142  C     C_R   0.313113 0.932827 0.820673 -0.122255
H17   H     H_    0.293496 0.075706 0.776117 0.105784
H18   H     H_    0.192533 0.064372 0.813073 0.128448
H19   H     H_    0.168336 0.969404 0.855124 0.133845
H20   H     H_    0.244967 0.884977 0.859420 0.135569
H21   H     H_    0.346112 0.895512 0.822396 0.105111
C143  C     C_R   0.828424 0.523678 0.796498 0.185705
C144  C     C_R   0.793243 0.577861 0.793153 -0.151751
C145  C     C_R   0.737066 0.582877 0.815465 -0.142121
C146  C     C_R   0.715496 0.533871 0.841070 -0.112127
C147  C     C_R   0.750023 0.479725 0.844348 -0.132311
C148  C     C_R   0.806294 0.474514 0.822121 -0.088709
H22   H     H_    0.809659 0.616258 0.773599 0.108921
H23   H     H_    0.710283 0.624781 0.812938 0.122754
H24   H     H_    0.671976 0.537815 0.858324 0.114292
H25   H     H_    0.733029 0.441782 0.864036 0.109808
H26   H     H_    0.832636 0.432311 0.824697 0.099492
C149  C     C_R   0.673473 0.019348 0.797362 0.195334
C150  C     C_R   0.721493 0.976171 0.793560 -0.164818
C151  C     C_R   0.778023 0.986680 0.814482 -0.139832
C152  C     C_R   0.787395 0.040718 0.838678 -0.096052
C153  C     C_R   0.740379 0.084487 0.841748 -0.154193
C154  C     C_R   0.683544 0.073889 0.821220 -0.123333
H27   H     H_    0.714844 0.934279 0.774706 0.107425
H28   H     H_    0.814620 0.953008 0.811827 0.124975
H29   H     H_    0.831203 0.048854 0.854824 0.129493
H30   H     H_    0.747978 0.126640 0.860072 0.135870
H31   H     H_    0.647555 0.108281 0.823510 0.104178
C155  C     C_R   0.171435 0.475882 0.796603 0.185629
C156  C     C_R   0.206502 0.421628 0.793219 -0.151663
C157  C     C_R   0.262672 0.416490 0.815566 -0.141835
C158  C     C_R   0.284352 0.465447 0.841238 -0.112163
C159  C     C_R   0.249945 0.519667 0.844545 -0.131974
C160  C     C_R   0.193679 0.524999 0.822283 -0.088705
H32   H     H_    0.190000 0.383271 0.773612 0.108947
H33   H     H_    0.289362 0.374527 0.813016 0.122018
H34   H     H_    0.327867 0.461408 0.858519 0.113939
H35   H     H_    0.267026 0.557575 0.864281 0.109961
H36   H     H_    0.167428 0.567257 0.824874 0.099373
C161  C     C_R   0.327284 0.013920 0.202274 0.194321
C162  C     C_R   0.280993 0.968852 0.206035 -0.162353
C163  C     C_R   0.224347 0.976770 0.184710 -0.140700
C164  C     C_R   0.213116 0.030105 0.160179 -0.097374
C165  C     C_R   0.258325 0.075813 0.157265 -0.145888
C166  C     C_R   0.315235 0.067832 0.178261 -0.124437
H37   H     H_    0.289118 0.927465 0.225114 0.106103
H38   H     H_    0.189118 0.941616 0.187283 0.124549
H39   H     H_    0.169245 0.036213 0.143685 0.130538
H40   H     H_    0.249260 0.117447 0.138724 0.136809
H41   H     H_    0.349730 0.103768 0.176267 0.106451
C167  C     C_R   0.828530 0.475818 0.203338 0.185722
C168  C     C_R   0.793400 0.421548 0.206624 -0.151744
C169  C     C_R   0.737238 0.416416 0.184249 -0.142310
C170  C     C_R   0.715634 0.465391 0.158640 -0.112001
C171  C     C_R   0.750108 0.519622 0.155422 -0.132154
C172  C     C_R   0.806362 0.524949 0.177713 -0.088791
H42   H     H_    0.809844 0.383173 0.226177 0.108909
H43   H     H_    0.710496 0.374445 0.186729 0.122899
H44   H     H_    0.672128 0.461355 0.141336 0.114510
H45   H     H_    0.733088 0.557541 0.135731 0.110048
H46   H     H_    0.832664 0.567217 0.175184 0.099490
C173  C     C_R   0.672899 0.982722 0.202454 0.195063
C174  C     C_R   0.720288 0.026633 0.206397 -0.164443
C175  C     C_R   0.776877 0.017225 0.185353 -0.140276
C176  C     C_R   0.786947 0.963554 0.160904 -0.096112
C177  C     C_R   0.740580 0.919046 0.157714 -0.152695
C178  C     C_R   0.683686 0.928543 0.178368 -0.123842
H47   H     H_    0.713091 0.068250 0.225445 0.107079
H48   H     H_    0.812977 0.051467 0.188107 0.124782
H49   H     H_    0.830798 0.956270 0.144659 0.129969
H50   H     H_    0.748733 0.877171 0.139204 0.136091
H51   H     H_    0.648217 0.893575 0.176011 0.105297
C179  C     C_R   0.171501 0.524558 0.203589 0.186086
C180  C     C_R   0.206477 0.578924 0.206975 -0.152256
C181  C     C_R   0.262697 0.584172 0.184741 -0.142366
C182  C     C_R   0.284519 0.535211 0.159183 -0.111611
C183  C     C_R   0.250207 0.480878 0.155880 -0.132491
C184  C     C_R   0.193891 0.475441 0.178027 -0.088779
H52   H     H_    0.189872 0.617278 0.226504 0.108883
H53   H     H_    0.289321 0.626217 0.187294 0.123022
H54   H     H_    0.328075 0.539332 0.141993 0.114676
H55   H     H_    0.267407 0.442961 0.136244 0.109865
H56   H     H_    0.167723 0.433090 0.175461 0.099187
C185  C     C_R   0.827991 0.476466 0.297523 0.195962
C186  C     C_R   0.778952 0.518559 0.294124 -0.163761
C187  C     C_R   0.722726 0.506388 0.314945 -0.138273
C188  C     C_R   0.714657 0.451731 0.338597 -0.096242
C189  C     C_R   0.762698 0.409035 0.341257 -0.156860
C190  C     C_R   0.819275 0.421349 0.320910 -0.125949
H57   H     H_    0.784550 0.560871 0.275625 0.107226
H58   H     H_    0.685338 0.539227 0.312597 0.125013
H59   H     H_    0.671065 0.442280 0.354631 0.128748
H60   H     H_    0.756100 0.366390 0.359142 0.136578
H61   H     H_    0.856077 0.387786 0.322906 0.105193
C191  C     C_R   0.328101 0.019902 0.296188 0.186779
C192  C     C_R   0.292322 0.073577 0.292111 -0.153054
C193  C     C_R   0.235876 0.078359 0.314099 -0.141994
C194  C     C_R   0.214630 0.029584 0.340068 -0.112141
C195  C     C_R   0.249757 0.975915 0.344036 -0.131603
C196  C     C_R   0.306322 0.970966 0.322160 -0.086995
H62   H     H_    0.308449 0.111740 0.272199 0.108253
H63   H     H_    0.208614 0.119879 0.311012 0.122729
H64   H     H_    0.170882 0.033323 0.357049 0.114378
H65   H     H_    0.232973 0.938127 0.363957 0.109964
H66   H     H_    0.333138 0.929134 0.325220 0.099218
C197  C     C_R   0.171980 0.523711 0.297745 0.196245
C198  C     C_R   0.221033 0.481631 0.294364 -0.163548
C199  C     C_R   0.277248 0.493829 0.315248 -0.138137
C200  C     C_R   0.285297 0.548504 0.338941 -0.096127
C201  C     C_R   0.237246 0.591191 0.341579 -0.156866
C202  C     C_R   0.180675 0.578846 0.321173 -0.126226
H67   H     H_    0.215453 0.439311 0.275827 0.107114
H68   H     H_    0.314646 0.460999 0.312915 0.125001
H69   H     H_    0.328881 0.557977 0.355024 0.128774
H70   H     H_    0.243829 0.633851 0.359495 0.136604
H71   H     H_    0.143864 0.612402 0.323153 0.105196
C203  C     C_R   0.672079 0.978549 0.296496 0.186162
C204  C     C_R   0.707650 0.924693 0.292665 -0.152591
C205  C     C_R   0.763999 0.919841 0.314815 -0.142077
C206  C     C_R   0.785355 0.968715 0.340706 -0.112203
C207  C     C_R   0.750439 0.022559 0.344432 -0.131722
C208  C     C_R   0.693978 0.027582 0.322389 -0.087510
H72   H     H_    0.691430 0.886445 0.272827 0.108697
H73   H     H_    0.791096 0.878184 0.311918 0.122803
H74   H     H_    0.829023 0.964916 0.357815 0.114383
H75   H     H_    0.767297 0.060422 0.364300 0.109972
H76   H     H_    0.667328 0.069547 0.325261 0.099214
C209  C     C_R   0.827890 0.522869 0.702314 0.195892
C210  C     C_R   0.778957 0.480586 0.705688 -0.163818
C211  C     C_R   0.722718 0.492498 0.684786 -0.138579
C212  C     C_R   0.714527 0.547082 0.661076 -0.096144
C213  C     C_R   0.762456 0.589969 0.658444 -0.156393
C214  C     C_R   0.819045 0.577919 0.678879 -0.125897
H77   H     H_    0.784655 0.438323 0.724223 0.107117
H78   H     H_    0.685415 0.459511 0.687113 0.124818
H79   H     H_    0.670927 0.556328 0.644974 0.128888
H80   H     H_    0.755764 0.632555 0.640512 0.136572
H81   H     H_    0.855760 0.611628 0.676903 0.105239
C215  C     C_R   0.328476 0.980162 0.703771 0.185746
C216  C     C_R   0.292351 0.926647 0.707661 -0.154460
C217  C     C_R   0.235779 0.922351 0.685738 -0.140977
C218  C     C_R   0.214735 0.971468 0.660034 -0.111674
C219  C     C_R   0.250200 0.024986 0.656258 -0.131533
C220  C     C_R   0.306914 0.029441 0.678052 -0.086946
H82   H     H_    0.308309 0.888225 0.727376 0.107327
H83   H     H_    0.208255 0.880946 0.688678 0.122571
H84   H     H_    0.170879 0.968116 0.643113 0.114269
H85   H     H_    0.233544 0.063038 0.636556 0.109821
H86   H     H_    0.333986 0.071166 0.675145 0.099135
C221  C     C_R   0.171994 0.476896 0.702438 0.196053
C222  C     C_R   0.220952 0.519144 0.705923 -0.163788
C223  C     C_R   0.277200 0.507203 0.685077 -0.138540
C224  C     C_R   0.285374 0.452622 0.661313 -0.096360
C225  C     C_R   0.237417 0.409771 0.658569 -0.156650
C226  C     C_R   0.180818 0.421853 0.678946 -0.125765
H87   H     H_    0.215270 0.561400 0.724506 0.107149
H88   H     H_    0.314525 0.540162 0.687490 0.124927
H89   H     H_    0.328982 0.443351 0.645258 0.128774
H90   H     H_    0.244096 0.367184 0.640599 0.136541
H91   H     H_    0.144083 0.388169 0.676889 0.105207
C227  C     C_R   0.672356 0.022203 0.703296 0.186271
C228  C     C_R   0.707768 0.076254 0.706891 -0.152150
C229  C     C_R   0.763990 0.081235 0.684628 -0.142032
C230  C     C_R   0.785380 0.032303 0.658854 -0.112167
C231  C     C_R   0.750624 0.978274 0.655358 -0.131820
C232  C     C_R   0.694292 0.973120 0.677516 -0.088055
H92   H     H_    0.691517 0.114555 0.726627 0.108331
H93   H     H_    0.790960 0.123039 0.687342 0.122760
H94   H     H_    0.828948 0.036203 0.641655 0.114385
H95   H     H_    0.767505 0.940367 0.635580 0.110027
H96   H     H_    0.667769 0.931012 0.674821 0.099258
C233  C     C_R   0.613017 0.191499 0.475204 0.148214
C234  C     C_R   0.625224 0.178829 0.430642 -0.148829
C235  C     C_R   0.681939 0.153594 0.418289 -0.118363
C236  C     C_R   0.726544 0.140639 0.450315 -0.108530
C237  C     C_R   0.714668 0.153409 0.494752 -0.146055
C238  C     C_R   0.658300 0.179355 0.507190 -0.111386
H97   H     H_    0.591260 0.189176 0.405532 0.119166
H98   H     H_    0.691463 0.144624 0.383853 0.110859
H99   H     H_    0.770456 0.121150 0.440683 0.108468
H100  H     H_    0.749341 0.143708 0.519509 0.117421
H101  H     H_    0.649933 0.189958 0.541602 0.119367
C239  C     C_R   0.190732 0.388814 0.529158 0.121583
C240  C     C_R   0.199013 0.334180 0.504973 -0.145921
C241  C     C_R   0.170744 0.279588 0.518760 -0.126871
C242  C     C_R   0.134444 0.279029 0.556878 -0.127772
C243  C     C_R   0.126307 0.333096 0.581261 -0.141860
C244  C     C_R   0.154640 0.387741 0.567634 -0.097515
H102  H     H_    0.226747 0.334091 0.475232 0.122786
H103  H     H_    0.176710 0.237795 0.499764 0.123604
H104  H     H_    0.112487 0.236749 0.567442 0.115185
H105  H     H_    0.097860 0.332714 0.610611 0.117418
H106  H     H_    0.147703 0.429465 0.586480 0.171399
C245  C     C_R   0.386962 0.808411 0.475194 0.148467
C246  C     C_R   0.374600 0.820426 0.430562 -0.149902
C247  C     C_R   0.317839 0.845465 0.418094 -0.118771
C248  C     C_R   0.273341 0.858885 0.450073 -0.108144
C249  C     C_R   0.285370 0.846773 0.494581 -0.146382
C250  C     C_R   0.341780 0.821013 0.507138 -0.110702
H107  H     H_    0.408471 0.809702 0.405486 0.119627
H108  H     H_    0.308194 0.853904 0.383606 0.110814
H109  H     H_    0.229388 0.878214 0.440353 0.108446
H110  H     H_    0.250774 0.856822 0.519302 0.117363
H111  H     H_    0.350249 0.810886 0.541605 0.119414
C251  C     C_R   0.809343 0.611158 0.529323 0.121561
C252  C     C_R   0.801029 0.665802 0.505201 -0.145950
C253  C     C_R   0.829370 0.720373 0.519029 -0.126953
C254  C     C_R   0.865769 0.720904 0.557130 -0.127586
C255  C     C_R   0.873936 0.666828 0.581452 -0.141847
C256  C     C_R   0.845542 0.612203 0.567777 -0.097691
H112  H     H_    0.773222 0.665912 0.475472 0.122744
H113  H     H_    0.823389 0.762171 0.500078 0.123474
H114  H     H_    0.887781 0.763168 0.567726 0.115208
H115  H     H_    0.902458 0.667185 0.610789 0.117364
H116  H     H_    0.852513 0.570470 0.586568 0.171503
C257  C     C_R   0.612968 0.808628 0.524898 0.148405
C258  C     C_R   0.625127 0.821459 0.569455 -0.148566
C259  C     C_R   0.681848 0.846765 0.581849 -0.118339
C260  C     C_R   0.726513 0.859619 0.549869 -0.108684
C261  C     C_R   0.714691 0.846679 0.505439 -0.146194
C262  C     C_R   0.658313 0.820671 0.492961 -0.111874
H117  H     H_    0.591124 0.811178 0.594531 0.119011
H118  H     H_    0.691334 0.855867 0.616282 0.110921
H119  H     H_    0.770431 0.879161 0.559532 0.108465
H120  H     H_    0.749411 0.856299 0.480718 0.117430
H121  H     H_    0.649987 0.809936 0.458558 0.119435
C263  C     C_R   0.190820 0.611317 0.471053 0.121543
C264  C     C_R   0.199099 0.665819 0.495409 -0.145945
C265  C     C_R   0.170840 0.720453 0.481756 -0.126665
C266  C     C_R   0.134568 0.721189 0.443596 -0.127605
C267  C     C_R   0.126435 0.667254 0.419045 -0.142029
C268  C     C_R   0.154742 0.612563 0.432546 -0.097358
H122  H     H_    0.226816 0.665767 0.525181 0.122760
H123  H     H_    0.176790 0.762139 0.500889 0.123458
H124  H     H_    0.112626 0.763504 0.433134 0.115091
H125  H     H_    0.098009 0.667769 0.389663 0.117414
H126  H     H_    0.147794 0.570933 0.413580 0.171647
C269  C     C_R   0.387020 0.191491 0.524754 0.148727
C270  C     C_R   0.374666 0.179573 0.569392 -0.150097
C271  C     C_R   0.317886 0.154557 0.581861 -0.118667
C272  C     C_R   0.273347 0.141065 0.549876 -0.108275
C273  C     C_R   0.285355 0.153098 0.505361 -0.146742
C274  C     C_R   0.341794 0.178835 0.492803 -0.110727
H127  H     H_    0.408548 0.190376 0.594477 0.119659
H128  H     H_    0.308266 0.146206 0.616356 0.110816
H129  H     H_    0.229375 0.121755 0.559598 0.108594
H130  H     H_    0.250720 0.143017 0.480636 0.117505
H131  H     H_    0.350243 0.188918 0.458332 0.119480
C275  C     C_R   0.809150 0.388731 0.470892 0.121519
C276  C     C_R   0.800973 0.334188 0.495158 -0.145823
C277  C     C_R   0.829258 0.279601 0.481406 -0.126749
C278  C     C_R   0.865453 0.278954 0.443236 -0.127599
C279  C     C_R   0.873478 0.332931 0.418772 -0.141798
C280  C     C_R   0.845145 0.387575 0.432372 -0.097697
H132  H     H_    0.773324 0.334173 0.524939 0.122700
H133  H     H_    0.823395 0.237883 0.500472 0.123431
H134  H     H_    0.887419 0.236677 0.432699 0.115119
H135  H     H_    0.901845 0.332484 0.389383 0.117409
H136  H     H_    0.852008 0.429237 0.413472 0.171594
C281  C     C_R   0.113454 0.691475 0.976291 0.148073
C282  C     C_R   0.125684 0.677254 0.931971 -0.145412
C283  C     C_R   0.182238 0.651217 0.920112 -0.115802
C284  C     C_R   0.226740 0.639163 0.952386 -0.112994
C285  C     C_R   0.214920 0.653632 0.996569 -0.148434
C286  C     C_R   0.158636 0.680220 0.008515 -0.113909
H137  H     H_    0.091826 0.686888 0.906662 0.118205
H138  H     H_    0.191682 0.640850 0.885862 0.111199
H139  H     H_    0.270525 0.619039 0.943129 0.109205
H140  H     H_    0.249540 0.644666 0.021508 0.119137
H141  H     H_    0.150220 0.691927 0.042738 0.119378
C287  C     C_R   0.690431 0.889848 0.031263 0.120630
C288  C     C_R   0.699226 0.834147 0.008450 -0.145762
C289  C     C_R   0.670603 0.780205 0.023156 -0.128048
C290  C     C_R   0.633398 0.781363 0.060818 -0.127857
C291  C     C_R   0.624749 0.836484 0.083850 -0.140203
C292  C     C_R   0.653459 0.890472 0.069324 -0.099914
H142  H     H_    0.727587 0.832717 0.979030 0.122811
H143  H     H_    0.676955 0.737583 0.005203 0.125052
H144  H     H_    0.611126 0.739595 0.072066 0.115867
H145  H     H_    0.595579 0.837434 0.112830 0.116498
H146  H     H_    0.646077 0.933013 0.087110 0.169655
C293  C     C_R   0.886541 0.308463 0.976229 0.147845
C294  C     C_R   0.874164 0.322207 0.931855 -0.146548
C295  C     C_R   0.817620 0.348234 0.919938 -0.117074
C296  C     C_R   0.773281 0.360771 0.952211 -0.110641
C297  C     C_R   0.785266 0.346818 0.996452 -0.146490
C298  C     C_R   0.841522 0.320206 0.008455 -0.112669
H147  H     H_    0.907908 0.312225 0.906553 0.118595
H148  H     H_    0.808064 0.358243 0.885649 0.111140
H149  H     H_    0.729509 0.380900 0.942914 0.108841
H150  H     H_    0.750799 0.356214 0.021397 0.118071
H151  H     H_    0.850056 0.308890 0.042726 0.119143
C299  C     C_R   0.309757 0.107689 0.036361 0.113846
C300  C     C_R   0.296806 0.165827 0.018170 -0.151377
C301  C     C_R   0.325588 0.218603 0.034828 -0.128442
C302  C     C_R   0.366985 0.213942 0.070033 -0.134154
C303  C     C_R   0.379442 0.156506 0.088771 -0.139159
C304  C     C_R   0.350459 0.103699 0.072341 -0.088310
H152  H     H_    0.264907 0.170141 0.990845 0.125023
H153  H     H_    0.316121 0.263066 0.020258 0.130686
H154  H     H_    0.389422 0.254816 0.082765 0.117511
H155  H     H_    0.411689 0.152856 0.115937 0.116787
H156  H     H_    0.360464 0.059530 0.087014 0.171189
C305  C     C_R   0.113410 0.308757 0.023702 0.147480
C306  C     C_R   0.125591 0.323243 0.067995 -0.145346
C307  C     C_R   0.181812 0.350159 0.079775 -0.113696
C308  C     C_R   0.226010 0.362868 0.047443 -0.118863
C309  C     C_R   0.214295 0.348016 0.003294 -0.151744
C310  C     C_R   0.158368 0.320508 0.991434 -0.114360
H157  H     H_    0.091901 0.313269 0.093332 0.117977
H158  H     H_    0.191208 0.360776 0.113998 0.111409
H159  H     H_    0.269516 0.383731 0.056635 0.109868
H160  H     H_    0.248726 0.357411 0.978322 0.121802
H161  H     H_    0.149985 0.308633 0.957227 0.120147
C311  C     C_R   0.690823 0.110605 0.969961 0.122002
C312  C     C_R   0.699191 0.165609 0.993717 -0.146099
C313  C     C_R   0.671141 0.220019 0.979402 -0.126458
C314  C     C_R   0.634999 0.220021 0.941176 -0.128183
C315  C     C_R   0.626752 0.165565 0.917240 -0.141878
C316  C     C_R   0.654801 0.111084 0.931426 -0.100677
H162  H     H_    0.726846 0.166139 0.023518 0.122603
H163  H     H_    0.677168 0.262110 0.998059 0.124349
H164  H     H_    0.613245 0.262172 0.930187 0.114131
H165  H     H_    0.598437 0.165521 0.887802 0.116013
H166  H     H_    0.647778 0.069061 0.912933 0.170401
C317  C     C_R   0.886577 0.691393 0.023697 0.148133
C318  C     C_R   0.874303 0.677373 0.068034 -0.145934
C319  C     C_R   0.817750 0.651285 0.079903 -0.116514
C320  C     C_R   0.773290 0.638981 0.047621 -0.111823
C321  C     C_R   0.785162 0.653235 0.003420 -0.147513
C322  C     C_R   0.841438 0.679885 0.991466 -0.113574
H167  H     H_    0.908128 0.687195 0.093347 0.118466
H168  H     H_    0.808277 0.641059 0.114165 0.111273
H169  H     H_    0.729509 0.618813 0.056884 0.109155
H170  H     H_    0.750590 0.644046 0.978472 0.118630
H171  H     H_    0.849888 0.691427 0.957227 0.119320
C323  C     C_R   0.309369 0.891220 0.967113 0.120135
C324  C     C_R   0.300742 0.834918 0.989142 -0.143397
C325  C     C_R   0.329144 0.781392 0.973477 -0.129415
C326  C     C_R   0.365975 0.783603 0.935650 -0.129093
C327  C     C_R   0.374424 0.839350 0.913401 -0.136131
C328  C     C_R   0.345895 0.892894 0.928892 -0.103978
H172  H     H_    0.272641 0.832683 0.018663 0.122936
H173  H     H_    0.322900 0.738274 0.990802 0.125929
H174  H     H_    0.388085 0.742164 0.923656 0.115899
H175  H     H_    0.403271 0.841125 0.884276 0.117965
H176  H     H_    0.352930 0.935864 0.911703 0.175185
O49   O     O_3   0.608488 0.973669 0.867815 -0.628232
C329  C     C_3   0.625977 0.911887 0.858883 0.053321
H177  H     H_    0.676555 0.908685 0.864228 0.177892
H178  H     H_    0.617273 0.897474 0.824068 0.126975
C330  C     C_3   0.594689 0.866824 0.890626 -0.323228
H179  H     H_    0.601939 0.882537 0.925137 0.258922
H180  H     H_    0.544461 0.865154 0.883477 0.218786
C331  C     C_3   0.621035 0.801989 0.885909 -0.972593
H181  H     H_    0.614322 0.784810 0.851681 0.254544
H182  H     H_    0.596975 0.770445 0.909060 0.259260
H183  H     H_    0.671028 0.801850 0.893987 0.253866
O50   O     O_3   0.096598 0.445570 0.864893 -0.576936
C332  C     C_3   0.092527 0.381584 0.855748 0.075828
H184  H     H_    0.138789 0.361342 0.861882 0.166989
H185  H     H_    0.080937 0.371279 0.820615 0.122268
C333  C     C_3   0.046425 0.350031 0.886533 -0.377014
H186  H     H_    0.059297 0.360477 0.921079 0.238028
H187  H     H_    0.999316 0.368007 0.880228 0.195399
C334  C     C_3   0.046448 0.280319 0.880014 -0.933781
H188  H     H_    0.032873 0.268660 0.845641 0.253237
H189  H     H_    0.013014 0.258742 0.903025 0.270352
H190  H     H_    0.092937 0.261133 0.886938 0.252941
O51   O     O_3   0.394113 0.025805 0.867531 -0.627281
C335  C     C_3   0.388478 0.090649 0.866378 0.071860
H191  H     H_    0.379921 0.106615 0.831973 0.135807
H192  H     H_    0.431028 0.113528 0.878991 0.148971
C336  C     C_3   0.334351 0.110077 0.895543 -0.302477
H193  H     H_    0.292080 0.084879 0.885413 0.235119
H194  H     H_    0.344489 0.098023 0.930410 0.231607
C337  C     C_3   0.322467 0.179197 0.892261 -0.964151
H195  H     H_    0.363198 0.205348 0.904310 0.258099
H196  H     H_    0.281940 0.191648 0.912760 0.252133
H197  H     H_    0.312604 0.192363 0.857527 0.251400
O52   O     O_3   0.903252 0.554162 0.864854 -0.576872
C338  C     C_3   0.907271 0.618142 0.855739 0.075630
H198  H     H_    0.861013 0.638369 0.861890 0.166226
H199  H     H_    0.918786 0.628413 0.820608 0.122340
C339  C     C_3   0.953423 0.649742 0.886528 -0.376565
H200  H     H_    0.940573 0.639401 0.921074 0.237942
H201  H     H_    0.000507 0.631708 0.880243 0.195290
C340  C     C_3   0.953463 0.719434 0.879978 -0.934647
H202  H     H_    0.966998 0.730985 0.845599 0.253247
H203  H     H_    0.986957 0.741038 0.902979 0.270597
H204  H     H_    0.907005 0.738684 0.886892 0.252134
O53   O     O_3   0.606827 0.028481 0.132327 -0.626532
C341  C     C_3   0.623273 0.090424 0.141778 0.055344
H205  H     H_    0.673810 0.094605 0.136608 0.176860
H206  H     H_    0.614192 0.104201 0.176665 0.126274
C342  C     C_3   0.591391 0.135355 0.110250 -0.321628
H207  H     H_    0.599231 0.120362 0.075636 0.258864
H208  H     H_    0.541085 0.135868 0.117152 0.216846
C343  C     C_3   0.616436 0.200635 0.115657 -0.975008
H209  H     H_    0.609129 0.217089 0.149997 0.254830
H210  H     H_    0.591941 0.232066 0.092666 0.259168
H211  H     H_    0.666478 0.201942 0.107826 0.253943
O54   O     O_3   0.096671 0.554505 0.135168 -0.576950
C344  C     C_3   0.092562 0.618493 0.144275 0.075411
H212  H     H_    0.138834 0.638809 0.138238 0.166221
H213  H     H_    0.080863 0.628817 0.179375 0.122320
C345  C     C_3   0.046554 0.649941 0.113365 -0.376195
H214  H     H_    0.059636 0.639613 0.078854 0.237962
H215  H     H_    0.999456 0.631781 0.119490 0.195360
C346  C     C_3   0.046389 0.719638 0.119960 -0.935130
H216  H     H_    0.032613 0.731175 0.154299 0.253208
H217  H     H_    0.013025 0.741146 0.096860 0.270680
H218  H     H_    0.092869 0.739003 0.113216 0.252160
O55   O     O_3   0.394201 0.968280 0.132494 -0.628414
C347  C     C_3   0.379626 0.906007 0.142327 0.059677
H219  H     H_    0.329290 0.900136 0.136943 0.175522
H220  H     H_    0.388816 0.893125 0.177367 0.126480
C348  C     C_3   0.413203 0.861569 0.111324 -0.321451
H221  H     H_    0.404722 0.875372 0.076528 0.257354
H222  H     H_    0.463511 0.863183 0.118201 0.217788
C349  C     C_3   0.390750 0.795516 0.117561 -0.976573
H223  H     H_    0.398776 0.780259 0.152093 0.255080
H224  H     H_    0.416424 0.764470 0.094954 0.258937
H225  H     H_    0.340778 0.792053 0.109793 0.254806
O56   O     O_3   0.903401 0.445525 0.135058 -0.576939
C350  C     C_3   0.907452 0.381557 0.144188 0.075467
H226  H     H_    0.861231 0.361223 0.137926 0.166175
H227  H     H_    0.918866 0.371322 0.179348 0.122386
C351  C     C_3   0.953733 0.350057 0.113521 -0.376839
H228  H     H_    0.941045 0.360438 0.078944 0.237733
H229  H     H_    0.000791 0.368140 0.119971 0.195371
C352  C     C_3   0.953723 0.280354 0.120016 -0.934390
H230  H     H_    0.967085 0.268764 0.154429 0.253165
H231  H     H_    0.987322 0.258822 0.097108 0.270520
H232  H     H_    0.907295 0.261063 0.112929 0.252136
O57   O     O_3   0.107739 0.476052 0.367895 -0.627526
C353  C     C_3   0.126425 0.414670 0.358765 0.051943
H233  H     H_    0.177022 0.412354 0.364251 0.177409
H234  H     H_    0.118184 0.400380 0.323869 0.127474
C354  C     C_3   0.095821 0.368756 0.390221 -0.323449
H235  H     H_    0.102804 0.384181 0.424823 0.259133
H236  H     H_    0.045632 0.366372 0.383038 0.218522
C355  C     C_3   0.123188 0.304401 0.385132 -0.972420
H237  H     H_    0.116610 0.287448 0.350833 0.254707
H238  H     H_    0.099736 0.272253 0.408177 0.259272
H239  H     H_    0.173210 0.304980 0.393100 0.253420
O58   O     O_3   0.597657 0.947086 0.364852 -0.576790
C356  C     C_3   0.594273 0.883026 0.355822 0.076101
H240  H     H_    0.640735 0.863300 0.362045 0.166349
H241  H     H_    0.582924 0.872517 0.320678 0.122128
C357  C     C_3   0.548375 0.851054 0.386584 -0.376175
H242  H     H_    0.560963 0.861751 0.421147 0.238408
H243  H     H_    0.501058 0.868424 0.380170 0.195725
C358  C     C_3   0.549181 0.781329 0.380197 -0.936160
H244  H     H_    0.535792 0.769401 0.345833 0.253503
H245  H     H_    0.515938 0.759480 0.403222 0.270570
H246  H     H_    0.595865 0.762679 0.387195 0.252075
O59   O     O_3   0.892248 0.523960 0.367831 -0.627542
C359  C     C_3   0.873573 0.585349 0.358753 0.051998
H247  H     H_    0.822974 0.587666 0.364188 0.177448
H248  H     H_    0.881834 0.599658 0.323885 0.127475
C360  C     C_3   0.904164 0.631248 0.390295 -0.323380
H249  H     H_    0.897188 0.615797 0.424871 0.259149
H250  H     H_    0.954352 0.633654 0.383153 0.218551
C361  C     C_3   0.876776 0.695600 0.385271 -0.972606
H251  H     H_    0.883335 0.712576 0.350998 0.254694
H252  H     H_    0.900228 0.727740 0.408371 0.259273
H253  H     H_    0.826757 0.695001 0.393210 0.253434
O60   O     O_3   0.402276 0.052193 0.364579 -0.576947
C362  C     C_3   0.405511 0.116231 0.355520 0.076380
H254  H     H_    0.359030 0.135884 0.361775 0.166338
H255  H     H_    0.416708 0.126641 0.320356 0.122008
C363  C     C_3   0.451485 0.148367 0.386218 -0.376690
H256  H     H_    0.439192 0.137591 0.420805 0.238234
H257  H     H_    0.498822 0.131183 0.379651 0.195452
C364  C     C_3   0.450389 0.218092 0.379930 -0.935816
H258  H     H_    0.463504 0.230095 0.345548 0.253534
H259  H     H_    0.483715 0.240032 0.402901 0.270473
H260  H     H_    0.403687 0.236571 0.387078 0.252041
O61   O     O_3   0.107673 0.524299 0.632215 -0.627469
C365  C     C_3   0.126250 0.585740 0.641360 0.052068
H261  H     H_    0.176853 0.588199 0.635961 0.177424
H262  H     H_    0.117924 0.600029 0.676237 0.127395
C366  C     C_3   0.095634 0.631543 0.609834 -0.323326
H263  H     H_    0.102676 0.616099 0.575249 0.259093
H264  H     H_    0.045434 0.633808 0.616945 0.218496
C367  C     C_3   0.122921 0.695973 0.614928 -0.972621
H265  H     H_    0.116287 0.712943 0.649209 0.254717
H266  H     H_    0.099456 0.728038 0.591835 0.259277
H267  H     H_    0.172952 0.695514 0.607027 0.253386
O62   O     O_3   0.597587 0.053348 0.635092 -0.576732
C368  C     C_3   0.594029 0.117376 0.644182 0.075613
H268  H     H_    0.640418 0.137315 0.637961 0.166434
H269  H     H_    0.582714 0.127784 0.679334 0.121601
C369  C     C_3   0.547988 0.149202 0.613458 -0.376130
H270  H     H_    0.560474 0.138514 0.578890 0.238232
H271  H     H_    0.500721 0.131701 0.619929 0.195693
C370  C     C_3   0.548751 0.218936 0.619822 -0.936409
H272  H     H_    0.535510 0.230855 0.654202 0.253065
H273  H     H_    0.515389 0.240698 0.596840 0.270571
H274  H     H_    0.595384 0.237692 0.612744 0.252158
O63   O     O_3   0.892288 0.475596 0.632068 -0.627536
C371  C     C_3   0.873756 0.414142 0.641148 0.052295
H275  H     H_    0.823162 0.411634 0.635673 0.177358
H276  H     H_    0.882051 0.399880 0.676026 0.127433
C372  C     C_3   0.904450 0.368340 0.609641 -0.323187
H277  H     H_    0.897421 0.383740 0.575054 0.259163
H278  H     H_    0.954647 0.366137 0.616814 0.218557
C373  C     C_3   0.877229 0.303885 0.614674 -0.973038
H279  H     H_    0.883854 0.286957 0.648956 0.254732
H280  H     H_    0.900746 0.271822 0.591596 0.259284
H281  H     H_    0.827203 0.304282 0.606713 0.253348
O64   O     O_3   0.402438 0.947595 0.635390 -0.576786
C374  C     C_3   0.405502 0.883544 0.644411 0.076670
H282  H     H_    0.359008 0.863930 0.638003 0.166171
H283  H     H_    0.416525 0.873086 0.679600 0.122236
C375  C     C_3   0.451553 0.851427 0.613833 -0.377207
H284  H     H_    0.439449 0.862266 0.579215 0.238129
H285  H     H_    0.498888 0.868582 0.620570 0.195429
C376  C     C_3   0.450295 0.781693 0.620059 -0.935432
H286  H     H_    0.463130 0.769631 0.654492 0.253492
H287  H     H_    0.483758 0.759782 0.597226 0.270436
H288  H     H_    0.403617 0.763239 0.612680 0.251970

loop_
_geom_bond_atom_site_label_1
_geom_bond_atom_site_label_2
_ccdc_geom_bond_type
C29   C133  A    
C273  C274  A    
C349  H223  S    
C37   C69   A    
C162  H37   S    
C271  C272  A    
C180  C181  A    
C24   C27   A    
Cu7   O11   S    
C21   C26   A    
C350  C351  S    
C284  C285  A    
C8    C56   S    
C351  C352  S    
Cu9   Cu10  S    
C192  H62   S    
C62   O26   A    
C14   C132  A    
C326  C327  A    
C157  C158  A    
C106  C132  A    
C370  H273  S    
C176  C177  A    
C216  C217  A    
C151  H28   S    
C23   C127  A    
Cu9   O35   S    
Cu10  O37   S    
C10   C124  A    
Cu12  O48   S    
C333  H187  S    
C219  H85   S    
C85   C96   S    
C17   C137  S    
C348  H222  S    
C12   C126  A    
C293  C294  A    
C286  H141  S    
C87   C94   S    
C175  H48   S    
C376  H288  S    
O54   C344  S    
C7    O13   A    
C331  H182  S    
C254  C255  A    
C148  H26   S    
Cu11  O41   S    
C39   C269  S    
C174  H47   S    
C5    O15   A    
C104  C116  A    
C203  C208  A    
C372  H277  S    
C153  C154  A    
C198  C199  A    
C308  H159  S    
C9    C121  A    
C335  C336  S    
Cu3   O7    S    
C200  C201  A    
C84   C91   S    
C7    C55   S    
C37   C257  S    
C26   C130  A    
C347  C348  S    
C107  C129  A    
C47   C53   A    
C88   C95   S    
C233  C238  A    
C342  H208  S    
C106  C118  A    
C61   O25   A    
C17   C30   A    
C322  H171  S    
C6    C54   S    
C19   C32   A    
Cu1   O1    S    
C343  H209  S    
C354  H236  S    
C354  H235  S    
C362  C363  S    
C90   O40   A    
C43   C75   A    
C253  H113  S    
C352  H232  S    
C197  C198  A    
C367  H267  S    
C106  O58   S    
C105  C131  A    
C304  H156  S    
C272  C273  A    
C112  C120  A    
C31   C221  S    
O52   C338  S    
C3    O5    A    
C330  C331  S    
C6    O10   A    
C349  H225  S    
C193  C194  A    
C364  H258  S    
C1    O7    A    
C4    O4    A    
C195  C196  A    
C368  C369  S    
C244  H106  S    
C257  C258  A    
C239  C244  A    
C66   C82   A    
Cu1   Cu3   S    
C307  H158  S    
C8    O16   A    
C339  H201  S    
C358  H244  S    
O55   C347  S    
C346  H218  S    
C183  H55   S    
C301  C302  A    
C358  H246  S    
C60   C117  S    
C140  C141  A    
C356  C357  S    
Cu3   O3    S    
C72   C84   A    
Cu2   Cu4   S    
C18   C122  A    
C309  H160  S    
C278  H134  S    
C107  O59   S    
C341  H206  S    
C313  H163  S    
C35   C51   A    
C230  C231  A    
C101  C115  A    
Cu6   Cu8   S    
C203  C204  A    
C289  C290  A    
C365  H262  S    
C350  H226  S    
C40   C275  S    
C79   C85   A    
C260  C261  A    
C339  C340  S    
C14   C130  A    
C364  H260  S    
C316  H166  S    
C300  H152  S    
C177  H50   S    
C283  H138  S    
C103  O55   S    
C319  H168  S    
C112  C134  A    
O62   C368  S    
C10   C122  A    
C334  H190  S    
C36   C68   A    
C328  H176  S    
C12   C128  A    
C341  C342  S    
C28   C203  S    
C237  C238  A    
C172  H46   S    
O50   C332  S    
C365  C366  S    
C321  H170  S    
C198  H67   S    
C174  C175  A    
C80   C88   A    
C324  C325  A    
C143  C148  A    
C318  C319  A    
C21   C161  S    
C160  H36   S    
C183  C184  A    
C361  H252  S    
C371  C372  S    
C48   C323  S    
C327  H175  S    
C205  C206  A    
C357  H243  S    
C287  C288  A    
C9    C123  A    
C275  C280  A    
O56   C350  S    
C288  H142  S    
C65   H1    S    
C264  C265  A    
C70   C82   A    
C96   O44   A    
C223  H88   S    
C32   C227  S    
C165  H40   S    
C212  C213  A    
C311  C312  A    
C369  H271  S    
C225  H90   S    
C255  C256  A    
C338  C339  S    
C219  C220  A    
C218  C219  A    
C61   O27   A    
C39   C71   A    
C313  C314  A    
C206  C207  A    
C205  H73   S    
C227  C228  A    
C344  H212  S    
C343  H211  S    
C189  H60   S    
C229  C230  A    
Cu3   O23   S    
C361  H253  S    
C295  H148  S    
C94   O48   A    
C213  C214  A    
C72   H8    S    
C109  C135  A    
C149  C154  A    
C110  C136  A    
O59   C359  S    
C94   O42   A    
C240  C241  A    
C16   C134  A    
C34   C66   A    
C36   C251  S    
O53   C341  S    
C228  H92   S    
C3    O3    A    
C142  H21   S    
C360  H250  S    
O49   C329  S    
C98   C124  A    
C19   C123  A    
C194  H64   S    
C182  C183  A    
C82   C89   S    
C168  H42   S    
C282  H137  S    
C357  H242  S    
C355  H238  S    
C179  C180  A    
C102  C128  A    
C279  H135  S    
C333  C334  S    
C165  C166  A    
C373  H280  S    
Cu1   O17   S    
O61   C365  S    
C257  C262  A    
C73   H9    S    
C294  C295  A    
C111  C119  A    
C161  C162  A    
C209  C214  A    
C366  H264  S    
C232  H96   S    
C58   C119  S    
Cu10  O40   S    
C2    C50   S    
C235  C236  A    
C211  H78   S    
C315  H165  S    
C81   C92   S    
C230  H94   S    
Cu6   O16   S    
C276  C277  A    
C261  H120  S    
C270  C271  A    
C30   C134  A    
C22   C25   A    
C64   O30   A    
C254  H114  S    
C59   O23   A    
C218  H84   S    
Cu7   O15   S    
C324  H172  S    
C108  C130  A    
C206  H74   S    
C36   C52   A    
C237  H100  S    
C208  H76   S    
C176  H49   S    
C47   C317  S    
C151  C152  A    
C34   C239  S    
C44   C299  S    
C199  C200  A    
C233  C234  A    
C217  C218  A    
C278  C279  A    
C345  H214  S    
C347  H220  S    
C327  C328  A    
C155  C160  A    
C170  H44   S    
C299  C304  A    
C96   O46   A    
C226  H91   S    
C266  C267  A    
C33   C233  S    
C100  C114  A    
C243  C244  A    
C100  C122  A    
C259  C260  A    
C344  C345  S    
C166  H41   S    
C23   C173  S    
C157  H33   S    
C371  H275  S    
C351  H229  S    
C332  H185  S    
C141  C142  A    
C250  H111  S    
C152  H29   S    
C41   C281  S    
C204  C205  A    
C334  H189  S    
C263  C264  A    
C28   C132  A    
C367  H266  S    
C150  H27   S    
Cu2   O24   S    
C97   O49   S    
C236  H99   S    
C86   C93   S    
C317  C318  A    
C35   C67   A    
C149  C150  A    
C41   C53   A    
Cu8   O12   S    
C285  C286  A    
Cu2   O18   S    
C18   C29   A    
Cu5   O29   S    
C23   C28   A    
C73   C85   A    
C147  H25   S    
C221  C226  A    
C57   C120  S    
C265  H123  S    
C43   C55   A    
C253  C254  A    
C372  H278  S    
C275  C276  A    
C59   C118  S    
C251  C252  A    
C295  C296  A    
C79   H15   S    
C300  C301  A    
C16   C136  A    
C231  C232  A    
C92   O38   A    
C98   O50   S    
C241  C242  A    
C75   C87   A    
C193  H63   S    
C360  H249  S    
C170  C171  A    
C155  C156  A    
C349  H224  S    
C4    O8    A    
C39   C49   A    
C245  C250  A    
C169  C170  A    
C5    O9    A    
C169  H43   S    
C357  C358  S    
C156  H32   S    
C240  H102  S    
C164  C165  A    
C350  H227  S    
C263  C268  A    
C336  C337  S    
C297  C298  A    
C8    O12   A    
C78   H14   S    
C187  H58   S    
C340  H204  S    
C98   C114  A    
C89   O33   A    
C335  H191  S    
C190  H61   S    
C99   C121  A    
Cu2   O2    S    
C355  H239  S    
Cu4   O22   S    
C45   C305  S    
C303  C304  A    
C365  H261  S    
Cu9   O34   S    
Cu10  O38   S    
Cu12  O45   S    
C374  C375  S    
C93   O45   A    
O64   C374  S    
C231  H95   S    
C64   O32   A    
C376  H287  S    
C59   O21   A    
C262  H121  S    
Cu11  O44   S    
C103  C125  A    
C20   C124  A    
C260  H119  S    
C41   C73   A    
C269  C270  A    
C277  C278  A    
C77   C87   A    
C60   O24   A    
C145  C146  A    
C177  C178  A    
C24   C128  A    
C13   C129  A    
C45   C77   A    
C99   O51   S    
C168  C169  A    
C290  C291  A    
C213  H80   S    
C270  H127  S    
C261  C262  A    
C71   C81   A    
C329  C330  S    
Cu6   O32   S    
C312  H162  S    
C38   C70   A    
C247  C248  A    
C290  H144  S    
C321  C322  A    
C220  H86   S    
C143  C144  A    
C343  H210  S    
C258  C259  A    
C181  H53   S    
C228  C229  A    
C362  H255  S    
C297  H150  S    
C347  H219  S    
C67   C83   A    
C352  H231  S    
C267  H125  S    
Cu4   O20   S    
Cu5   O13   S    
C359  H247  S    
C11   C125  A    
C144  C145  A    
C66   H2    S    
C238  H101  S    
Cu5   Cu7   S    
C234  C235  A    
C105  O57   S    
C204  H72   S    
C330  H180  S    
C311  C316  A    
C33   C49   A    
C225  C226  A    
Cu6   O26   S    
C216  H82   S    
C291  C292  A    
C58   O20   A    
C320  C321  A    
C227  C232  A    
C368  H269  S    
C140  H19   S    
C80   H16   S    
Cu11  Cu12  S    
C329  H177  S    
C264  H122  S    
C303  H155  S    
C346  H217  S    
C26   C191  S    
C173  C174  A    
C358  H245  S    
C102  O54   S    
C356  H241  S    
C40   C72   A    
C2    O2    A    
C224  H89   S    
C276  H132  S    
C25   C129  A    
C194  C195  A    
C312  C313  A    
C6    O14   A    
C77   H13   S    
C353  C354  S    
C105  C117  A    
C57   O17   A    
C224  C225  A    
Cu1   O21   S    
C296  H149  S    
C364  H259  S    
C95   O43   A    
C188  H59   S    
C370  H274  S    
C42   C74   A    
C294  H147  S    
C74   H10   S    
Cu2   O8    S    
O63   C371  S    
C68   C84   A    
C210  H77   S    
Cu5   O25   S    
Cu9   O36   S    
C31   C135  A    
C163  H38   S    
Cu12  O47   S    
C158  H34   S    
C374  H282  S    
C32   C136  A    
C3    C51   S    
C239  C240  A    
C348  C349  S    
C271  H128  S    
Cu8   O28   S    
C159  C160  A    
C186  H57   S    
C69   H5    S    
C302  H154  S    
C331  H181  S    
C291  H145  S    
Cu11  O42   S    
C103  C115  A    
O51   C335  S    
C317  C322  A    
C281  C282  A    
C68   H4    S    
C44   C56   A    
C65   C81   A    
C362  H254  S    
C137  C138  A    
C137  C142  A    
Cu7   O31   S    
C46   C54   A    
C61   C116  S    
C29   C209  S    
C191  C192  A    
C13   C131  A    
C199  H68   S    
C171  H45   S    
C173  C178  A    
C351  H228  S    
C2    O6    A    
C90   O34   A    
C11   C127  A    
C292  H146  S    
C17   C121  A    
C35   C245  S    
C178  H51   S    
C342  C343  S    
C337  H196  S    
C272  H129  S    
C338  H199  S    
C248  C249  A    
C63   O31   A    
C243  H105  S    
C21   C125  A    
C337  H195  S    
C211  C212  A    
C354  C355  S    
C325  C326  A    
C109  C119  A    
C46   C78   A    
C259  H118  S    
C141  H20   S    
C152  C153  A    
C246  C247  A    
Cu4   O6    S    
C310  H161  S    
C359  C360  S    
C185  C186  A    
C283  C284  A    
C335  H192  S    
C236  C237  A    
C19   C149  S    
C99   C113  A    
C363  H257  S    
C161  C166  A    
C184  H56   S    
C337  H197  S    
C256  H116  S    
C273  H130  S    
C222  C223  A    
C285  H140  S    
C363  H256  S    
C58   O18   A    
C192  C193  A    
C180  H52   S    
C95   O47   A    
C201  C202  A    
C284  H139  S    
C42   C54   A    
C339  H200  S    
C222  H87   S    
C185  C190  A    
C162  C163  A    
C139  C140  A    
C366  H263  S    
C363  C364  S    
C241  H103  S    
C138  H17   S    
C62   C115  S    
Cu8   O30   S    
C167  C168  A    
C97   C123  A    
C341  H205  S    
C361  H251  S    
C245  C246  A    
C249  H110  S    
C164  H39   S    
C247  H108  S    
C107  C117  A    
C91   O39   A    
C145  H23   S    
C325  H173  S    
Cu4   O4    S    
C89   O37   A    
C370  H272  S    
C371  H276  S    
C265  C266  A    
C326  H174  S    
C27   C131  A    
C242  C243  A    
C47   C79   A    
C305  C310  A    
C93   O41   A    
C345  H215  S    
C210  C211  A    
C33   C65   A    
C348  H221  S    
Cu6   O10   S    
C150  C151  A    
C12   C13   A    
C4    C52   S    
C202  H71   S    
C189  C190  A    
C331  H183  S    
C214  H81   S    
C5    C53   S    
C181  C182  A    
C9    C16   A    
C302  C303  A    
C111  O63   S    
C10   C15   A    
C344  H213  S    
C201  H70   S    
C37   C51   A    
C11   C14   A    
C22   C126  A    
C15   C135  A    
C277  H133  S    
C268  H126  S    
C25   C185  S    
C182  H54   S    
C267  C268  A    
C158  C159  A    
C44   C76   A    
C197  C202  A    
Cu7   O27   S    
O60   C362  S    
C144  H22   S    
Cu10  O39   S    
C101  C127  A    
C63   C114  S    
C146  C147  A    
C369  H270  S    
C7    O11   A    
C167  C172  A    
C314  C315  A    
C63   O29   A    
C153  H30   S    
C308  C309  A    
C288  C289  A    
C76   C88   A    
Cu1   O5    S    
C258  H117  S    
C296  C297  A    
C289  H143  S    
C91   O35   A    
C78   C86   A    
C20   C155  S    
C146  H24   S    
C71   H7    S    
C342  H207  S    
C340  H203  S    
C187  C188  A    
C104  O56   S    
C301  H153  S    
Cu5   O9    S    
C375  H284  S    
C320  H169  S    
C353  H233  S    
C38   C263  S    
C196  H66   S    
C306  H157  S    
C212  H79   S    
C319  C320  A    
C360  C361  S    
C255  H115  S    
C235  H98   S    
C280  H136  S    
C329  H178  S    
C34   C50   A    
C27   C197  S    
C333  H186  S    
C67   H3    S    
C179  C184  A    
C108  C118  A    
C293  C298  A    
C315  C316  A    
C269  C274  A    
C306  C307  A    
C110  C120  A    
C252  C253  A    
C336  H194  S    
C138  C139  A    
C111  C133  A    
C62   O28   A    
C18   C143  S    
C373  H279  S    
C375  C376  S    
C109  O61   S    
C175  C176  A    
C40   C52   A    
C281  C286  A    
C207  H75   S    
C108  O60   S    
C42   C287  S    
C274  H131  S    
C366  C367  S    
Cu9   O33   S    
C299  C300  A    
C69   C83   A    
Cu12  O46   S    
C374  H283  S    
C221  C222  A    
C249  C250  A    
C1    O1    A    
C266  H124  S    
C376  H286  S    
C217  H83   S    
C318  H167  S    
C74   C86   A    
Cu11  O43   S    
C45   C55   A    
C248  H109  S    
C101  O53   S    
C188  C189  A    
C246  H107  S    
C207  C208  A    
C139  H18   S    
C110  O62   S    
C287  C292  A    
C298  H151  S    
C97   C113  A    
C163  C164  A    
C30   C215  S    
C57   O19   A    
Cu3   O19   S    
C171  C172  A    
C223  C224  A    
C305  C306  A    
C75   H11   S    
C159  H35   S    
C48   C56   A    
C83   C90   S    
C186  C187  A    
C76   H12   S    
C60   O22   A    
C64   C113  S    
C70   H6    S    
Cu8   O14   S    
C373  H281  S    
C195  H65   S    
C156  C157  A    
C340  H202  S    
C252  H112  S    
C15   C133  A    
C352  H230  S    
C282  C283  A    
C38   C50   A    
C332  C333  S    
C367  H265  S    
C48   C80   A    
C359  H248  S    
C356  H240  S    
C334  H188  S    
C338  H198  S    
C92   O36   A    
O57   C353  S    
C100  O52   S    
C330  H179  S    
C154  H31   S    
C1    C49   S    
C369  C370  S    
C215  C220  A    
C215  C216  A    
C229  H93   S    
C353  H234  S    
C323  C328  A    
C345  C346  S    
C368  H268  S    
C24   C179  S    
C279  C280  A    
C102  C116  A    
C147  C148  A    
C336  H193  S    
C346  H216  S    
C22   C167  S    
C251  C256  A    
C372  C373  S    
C104  C126  A    
O58   C356  S    
C332  H184  S    
C323  C324  A    
C242  H104  S    
C200  H69   S    
C234  H97   S    
C112  O64   S    
C191  C196  A    
C43   C293  S    
C209  C210  A    
C309  C310  A    
C314  H164  S    
C375  H285  S    
C46   C311  S    
C307  C308  A    
C355  H237  S    
C20   C31   A    
