data_mof_unit_95.cif
_audit_creation_date              2012-12-10T18:02:28-0500
_audit_creation_method            fapswitch 2.2
_symmetry_space_group_name_H-M    P1
_symmetry_Int_Tables_number       1
_space_group_crystal_system       triclinic
_cell_length_a                    21.656055
_cell_length_b                    21.668293
_cell_length_c                    38.674911
_cell_angle_alpha                 90.026907
_cell_angle_beta                  90.02798
_cell_angle_gamma                 89.995879
_cell_volume                      18148.1879114

loop_
_atom_site_label
_atom_site_type_symbol
_atom_type_description
_atom_site_fract_x
_atom_site_fract_y
_atom_site_fract_z
_atom_type_partial_charge
C1    C     C_R   0.500013 0.880078 0.999961 1.050922
C2    C     C_R   0.880197 0.499999 0.000026 1.070344
C3    C     C_R   0.499986 0.119919 0.999959 1.050484
C4    C     C_R   0.119804 0.500000 0.000016 1.070523
C5    C     C_R   0.000003 0.380095 0.500001 1.066681
C6    C     C_R   0.380224 0.000015 0.499968 1.072042
C7    C     C_R   0.999997 0.619904 0.499998 1.066130
C8    C     C_R   0.619778 0.999983 0.499961 1.072411
C9    C     C_R   0.499741 0.686922 0.000100 -0.374142
C10   C     C_R   0.687209 0.499950 0.000010 -0.377174
C11   C     C_R   0.500192 0.313071 0.000063 -0.374235
C12   C     C_R   0.312793 0.500106 0.999978 -0.377116
C13   C     C_R   0.999988 0.186978 0.500013 -0.373157
C14   C     C_R   0.187280 0.000236 0.500047 -0.378437
C15   C     C_R   0.999953 0.813019 0.499980 -0.373194
C16   C     C_R   0.812724 0.999832 0.500015 -0.378348
C17   C     C_R   0.500048 0.814170 0.999952 -0.352533
C18   C     C_R   0.814482 0.499988 0.000030 -0.375364
C19   C     C_R   0.499940 0.185822 0.999942 -0.352473
C20   C     C_R   0.185520 0.500009 0.000017 -0.375409
C21   C     C_R   0.000010 0.314221 0.500001 -0.380754
C22   C     C_R   0.314557 0.000094 0.499988 -0.372124
C23   C     C_R   0.999986 0.685776 0.499993 -0.380765
C24   C     C_R   0.685447 0.999902 0.499979 -0.372098
C25   C     C_R   0.379394 0.500049 0.999992 1.041494
C26   C     C_R   0.499914 0.620505 0.000024 1.044852
C27   C     C_R   0.620607 0.499974 0.000005 1.041407
C28   C     C_R   0.500063 0.379493 0.000010 1.044605
C29   C     C_R   0.879369 0.999946 0.499999 1.036786
C30   C     C_R   0.999995 0.120526 0.500006 1.042175
C31   C     C_R   0.120633 0.000083 0.500013 1.036594
C32   C     C_R   0.999983 0.879474 0.499993 1.042107
C33   C     C_R   0.499985 0.999993 0.932377 1.012128
C34   C     C_R   0.999994 0.499984 0.932780 1.085902
C35   C     C_R   0.500018 0.000009 0.067217 1.081475
C36   C     C_R   0.000008 0.500013 0.067220 1.085676
C37   C     C_R   0.999984 0.500002 0.432780 1.080523
C38   C     C_R   0.499992 0.999984 0.432779 1.087358
C39   C     C_R   0.000016 0.500008 0.567220 1.080489
C40   C     C_R   0.500010 0.000015 0.567140 1.089551
C41   C     C_R   0.555046 0.987740 0.875772 0.289284
C42   C     C_R   0.946776 0.482224 0.877396 0.295076
C43   C     C_R   0.444805 0.012191 0.875780 0.289265
C44   C     C_R   0.053774 0.517369 0.877571 0.295436
C45   C     C_R   0.485935 0.945240 0.122383 0.292935
C46   C     C_R   0.053426 0.482561 0.122565 0.295285
C47   C     C_R   0.514594 0.054092 0.122596 0.292660
C48   C     C_R   0.946345 0.517466 0.122469 0.295422
C49   C     C_R   0.014353 0.445530 0.377506 0.293035
C50   C     C_R   0.447090 0.981482 0.377373 0.295710
C51   C     C_R   0.985355 0.554300 0.377493 0.293085
C52   C     C_R   0.553616 0.018029 0.377587 0.296090
C53   C     C_R   0.985773 0.445340 0.622413 0.293054
C54   C     C_R   0.552639 0.979770 0.622221 0.299513
C55   C     C_R   0.014642 0.554139 0.622588 0.292753
C56   C     C_R   0.447306 0.020362 0.622166 0.299733
C57   C     C_R   0.553678 0.983202 0.839580 0.309642
C58   C     C_R   0.945807 0.485690 0.841190 0.322664
C59   C     C_R   0.446098 0.016708 0.839590 0.309610
C60   C     C_R   0.055232 0.513343 0.841387 0.322660
C61   C     C_R   0.490134 0.943959 0.158567 0.322684
C62   C     C_R   0.054513 0.486213 0.158765 0.322683
C63   C     C_R   0.511128 0.054794 0.158806 0.322656
C64   C     C_R   0.945026 0.513630 0.158659 0.322553
C65   C     C_R   0.010419 0.444465 0.341310 0.322704
C66   C     C_R   0.446136 0.984881 0.341167 0.322479
C67   C     C_R   0.989036 0.555225 0.341290 0.322592
C68   C     C_R   0.555204 0.013924 0.341409 0.322472
C69   C     C_R   0.989873 0.444120 0.658602 0.322673
C70   C     C_R   0.553710 0.982813 0.658376 0.322494
C71   C     C_R   0.011111 0.554904 0.658798 0.322696
C72   C     C_R   0.446131 0.017268 0.658315 0.322234
C73   C     C_R   0.499869 0.999953 0.821568 -0.242027
C74   C     C_R   0.000647 0.499361 0.822977 -0.264398
C75   C     C_R   0.500837 0.999227 0.177000 -0.264123
C76   C     C_R   0.999707 0.499860 0.177023 -0.264240
C77   C     C_R   0.999663 0.499809 0.322991 -0.264126
C78   C     C_R   0.500836 0.999203 0.322975 -0.264176
C79   C     C_R   0.000653 0.499394 0.677008 -0.264161
C80   C     C_R   0.499891 0.000021 0.676413 -0.268685
C81   C     C_R   0.499946 0.999978 0.894187 -0.348950
C82   C     C_R   0.000161 0.499919 0.895312 -0.347923
C83   C     C_R   0.500099 0.999804 0.104669 -0.348867
C84   C     C_R   0.999934 0.500036 0.104688 -0.347749
C85   C     C_R   0.999929 0.499953 0.395324 -0.348562
C86   C     C_R   0.500205 0.999909 0.395309 -0.347513
C87   C     C_R   0.000083 0.499846 0.604676 -0.348616
C88   C     C_R   0.499988 0.000055 0.604454 -0.344726
C89   C     C_R   0.499838 0.999980 0.714083 0.391111
C90   C     C_R   0.000863 0.499187 0.715015 0.358753
C91   C     C_R   0.501115 0.998948 0.284969 0.358410
C92   C     C_R   0.999585 0.499747 0.284985 0.358907
C93   C     C_R   0.999602 0.499768 0.215029 0.358709
C94   C     C_R   0.501112 0.998965 0.215010 0.358504
C95   C     C_R   0.000862 0.499167 0.784972 0.358404
C96   C     C_R   0.499833 0.999949 0.783781 0.432557
C97   C     C_R   0.534403 0.782702 0.025176 0.267343
C98   C     C_R   0.783119 0.469066 0.026539 0.259033
C99   C     C_R   0.465688 0.217329 0.025189 0.266106
C100  C     C_R   0.216924 0.530999 0.026519 0.258236
C101  C     C_R   0.465343 0.782616 0.974899 0.247569
C102  C     C_R   0.216876 0.469113 0.973484 0.259342
C103  C     C_R   0.534495 0.217330 0.974843 0.248028
C104  C     C_R   0.783086 0.530828 0.973491 0.258283
C105  C     C_R   0.034252 0.282751 0.525261 0.262280
C106  C     C_R   0.283254 0.970491 0.526953 0.258422
C107  C     C_R   0.965789 0.717286 0.525253 0.261355
C108  C     C_R   0.716795 0.029620 0.526921 0.257846
C109  C     C_R   0.965769 0.282713 0.474743 0.261668
C110  C     C_R   0.716791 0.969915 0.473129 0.257667
C111  C     C_R   0.034148 0.717241 0.474719 0.262011
C112  C     C_R   0.283173 0.029990 0.473121 0.256474
C113  C     C_R   0.531611 0.718723 0.026418 0.351338
C114  C     C_R   0.719159 0.472322 0.027784 0.357859
C115  C     C_R   0.468437 0.281313 0.026410 0.351774
C116  C     C_R   0.280888 0.527777 0.027754 0.358104
C117  C     C_R   0.467671 0.718602 0.973851 0.365669
C118  C     C_R   0.280822 0.472473 0.972200 0.358552
C119  C     C_R   0.532138 0.281341 0.973786 0.365549
C120  C     C_R   0.719136 0.527514 0.972223 0.358893
C121  C     C_R   0.031492 0.218769 0.526472 0.352948
C122  C     C_R   0.219323 0.973973 0.528226 0.358470
C123  C     C_R   0.968506 0.781272 0.526445 0.353280
C124  C     C_R   0.780730 0.026182 0.528184 0.358625
C125  C     C_R   0.968503 0.218730 0.473544 0.353197
C126  C     C_R   0.780745 0.973276 0.471896 0.358462
C127  C     C_R   0.031390 0.781222 0.473512 0.353055
C128  C     C_R   0.219214 0.026690 0.471909 0.358839
N1    N     N_R   0.472566 0.046497 0.766074 -0.160539
N2    N     N_R   0.037886 0.538363 0.767192 -0.127261
N3    N     N_R   0.527088 0.953409 0.766053 -0.160555
N4    N     N_R   0.963892 0.459931 0.767140 -0.127043
N5    N     N_R   0.537879 0.038389 0.232843 -0.126857
N6    N     N_R   0.962523 0.538913 0.232834 -0.127265
N7    N     N_R   0.464415 0.959466 0.232793 -0.127093
N8    N     N_R   0.036648 0.460593 0.232834 -0.127192
N9    N     N_R   0.962428 0.538820 0.267180 -0.127176
N10   N     N_R   0.537788 0.038470 0.267188 -0.127253
N11   N     N_R   0.036728 0.460665 0.267179 -0.127266
N12   N     N_R   0.464510 0.959372 0.267138 -0.126964
N13   N     N_R   0.037974 0.538290 0.732846 -0.126989
N14   N     N_R   0.472488 0.046507 0.731762 -0.139888
N15   N     N_R   0.963805 0.460023 0.732795 -0.127171
N16   N     N_R   0.527171 0.953430 0.731742 -0.139771
O1    O     O_R   0.448370 0.908480 0.999910 -0.605878
O2    O     O_R   0.908480 0.551630 0.999910 -0.601858
O3    O     O_R   0.551630 0.091520 0.999910 -0.605972
O4    O     O_R   0.091520 0.448370 0.999910 -0.601873
O5    O     O_R   0.551630 0.908480 0.000090 -0.585509
O6    O     O_R   0.091520 0.551630 0.000090 -0.602123
O7    O     O_R   0.448370 0.091520 0.000090 -0.585494
O8    O     O_R   0.908480 0.448370 0.000090 -0.602148
O9    O     O_R   0.948370 0.408480 0.499910 -0.598475
O10   O     O_R   0.408480 0.051630 0.499910 -0.603284
O11   O     O_R   0.051630 0.591520 0.499910 -0.598504
O12   O     O_R   0.591520 0.948370 0.499910 -0.603364
O13   O     O_R   0.051630 0.408480 0.500090 -0.598458
O14   O     O_R   0.591520 0.051630 0.500090 -0.603704
O15   O     O_R   0.948370 0.591520 0.500090 -0.598426
O16   O     O_R   0.408480 0.948370 0.500090 -0.603781
O17   O     O_R   0.448370 0.000090 0.948970 -0.586399
O18   O     O_R   0.000090 0.551630 0.948970 -0.625235
O19   O     O_R   0.551630 0.999910 0.948970 -0.586317
O20   O     O_R   0.999910 0.448370 0.948970 -0.625534
O21   O     O_R   0.551630 0.000090 0.051030 -0.625476
O22   O     O_R   0.999910 0.551630 0.051030 -0.625274
O23   O     O_R   0.448370 0.999910 0.051030 -0.625011
O24   O     O_R   0.000090 0.448370 0.051030 -0.625455
O25   O     O_R   0.948370 0.500090 0.448970 -0.624978
O26   O     O_R   0.500090 0.051630 0.448970 -0.625302
O27   O     O_R   0.051630 0.499910 0.448970 -0.624836
O28   O     O_R   0.499910 0.948370 0.448970 -0.625694
O29   O     O_R   0.051630 0.500090 0.551030 -0.625104
O30   O     O_R   0.499910 0.051630 0.551030 -0.625782
O31   O     O_R   0.948370 0.499910 0.551030 -0.624742
O32   O     O_R   0.500090 0.948370 0.551030 -0.625766
O33   O     O_R   0.408360 0.500090 0.028640 -0.613741
O34   O     O_R   0.500090 0.591640 0.028640 -0.617496
O35   O     O_R   0.591640 0.499910 0.028640 -0.613542
O36   O     O_R   0.499910 0.408360 0.028640 -0.617462
O37   O     O_R   0.591640 0.500090 0.971360 -0.613790
O38   O     O_R   0.499910 0.591640 0.971360 -0.620211
O39   O     O_R   0.408360 0.499910 0.971360 -0.613783
O40   O     O_R   0.500090 0.408360 0.971360 -0.620000
O41   O     O_R   0.908360 0.000090 0.528640 -0.611877
O42   O     O_R   0.000090 0.091640 0.528640 -0.617376
O43   O     O_R   0.091640 0.999910 0.528640 -0.611646
O44   O     O_R   0.999910 0.908360 0.528640 -0.617399
O45   O     O_R   0.091640 0.000090 0.471360 -0.612221
O46   O     O_R   0.999910 0.091640 0.471360 -0.617471
O47   O     O_R   0.908360 0.999910 0.471360 -0.612185
O48   O     O_R   0.000090 0.908360 0.471360 -0.617334
Zn1   Zn    Zn3+2 0.431020 0.000000 0.000000 1.038546
Zn2   Zn    Zn3+2 1.000000 0.568980 0.000000 1.035579
Zn3   Zn    Zn3+2 0.568980 0.000000 0.000000 1.038323
Zn4   Zn    Zn3+2 1.000000 0.431020 0.000000 1.035390
Zn5   Zn    Zn3+2 0.931020 0.500000 0.500000 1.041825
Zn6   Zn    Zn3+2 0.500000 0.068980 0.500000 1.033227
Zn7   Zn    Zn3+2 0.068980 0.500000 0.500000 1.041702
Zn8   Zn    Zn3+2 0.500000 0.931020 0.500000 1.033040
Zn9   Zn    Zn3+2 0.500000 0.500000 0.038290 0.939962
Zn10  Zn    Zn3+2 0.500000 0.500000 0.961710 0.937773
Zn11  Zn    Zn3+2 1.000000 1.000000 0.538290 0.941824
Zn12  Zn    Zn3+2 1.000000 1.000000 0.461710 0.940988
O49   O     O_3   0.609681 0.976078 0.893164 -0.587759
C129  C     C_3   0.646920 0.029580 0.892024 0.168135
H1    H     H_    0.621148 0.071001 0.901170 0.183788
H2    H     H_    0.664038 0.038099 0.865335 0.168897
C130  C     C_3   0.702457 0.020560 0.915553 -0.761533
H3    H     H_    0.729767 0.980038 0.906856 0.245571
H4    H     H_    0.732254 0.062242 0.914771 0.209891
H5    H     H_    0.686889 0.012920 0.942576 0.263066
O50   O     O_3   0.893412 0.468385 0.895483 -0.570097
C131  C     C_3   0.884875 0.403808 0.895510 0.146924
H6    H     H_    0.925217 0.379919 0.907371 0.142286
H7    H     H_    0.877783 0.385962 0.868808 0.175262
C132  C     C_3   0.827760 0.388289 0.916662 -0.787969
H8    H     H_    0.786445 0.410465 0.905059 0.237454
H9    H     H_    0.820700 0.337542 0.917065 0.213450
H10   H     H_    0.833452 0.404935 0.943619 0.265188
O51   O     O_3   0.390191 0.023810 0.893179 -0.587701
C133  C     C_3   0.353008 0.970266 0.892023 0.168033
H11   H     H_    0.378839 0.928883 0.901163 0.183644
H12   H     H_    0.335864 0.961702 0.865330 0.168878
C134  C     C_3   0.297493 0.979248 0.915546 -0.761292
H13   H     H_    0.270119 0.019723 0.906851 0.245495
H14   H     H_    0.267748 0.937526 0.914755 0.209946
H15   H     H_    0.313088 0.986942 0.942572 0.263052
O52   O     O_3   0.106901 0.531490 0.895842 -0.570087
C135  C     C_3   0.115345 0.596078 0.895701 0.146556
H16   H     H_    0.074896 0.620025 0.907400 0.142391
H17   H     H_    0.122560 0.613649 0.868964 0.175038
C136  C     C_3   0.172317 0.611914 0.916939 -0.787832
H18   H     H_    0.213730 0.589675 0.905497 0.237233
H19   H     H_    0.179299 0.662675 0.917211 0.213536
H20   H     H_    0.166500 0.595555 0.943931 0.265315
O53   O     O_3   0.474528 0.891517 0.104080 -0.571821
C137  C     C_3   0.410450 0.879577 0.104511 0.145743
H21   H     H_    0.384247 0.918436 0.092648 0.141563
H22   H     H_    0.393533 0.871945 0.131346 0.175627
C138  C     C_3   0.397426 0.821434 0.083709 -0.787173
H23   H     H_    0.423176 0.781812 0.094822 0.238870
H24   H     H_    0.347255 0.810951 0.084355 0.215276
H25   H     H_    0.411730 0.828124 0.056432 0.262135
O54   O     O_3   0.106768 0.468778 0.104436 -0.570073
C139  C     C_3   0.115482 0.404224 0.104457 0.146438
H26   H     H_    0.075197 0.380186 0.092620 0.142551
H27   H     H_    0.122638 0.386503 0.131171 0.175281
C140  C     C_3   0.172629 0.388769 0.083309 -0.786056
H28   H     H_    0.213872 0.411191 0.094853 0.237346
H29   H     H_    0.179890 0.338047 0.082992 0.214644
H30   H     H_    0.166832 0.405194 0.056326 0.264962
O55   O     O_3   0.525647 0.108095 0.104519 -0.571702
C141  C     C_3   0.589717 0.120111 0.104718 0.146243
H31   H     H_    0.615798 0.081393 0.092623 0.141440
H32   H     H_    0.607026 0.127537 0.131506 0.175832
C142  C     C_3   0.602353 0.178445 0.084047 -0.787407
H33   H     H_    0.576736 0.217944 0.095400 0.239128
H34   H     H_    0.652521 0.188977 0.084507 0.215150
H35   H     H_    0.587626 0.171969 0.056813 0.261904
O56   O     O_3   0.893129 0.531388 0.104236 -0.570124
C143  C     C_3   0.884473 0.595949 0.104373 0.146248
H36   H     H_    0.924824 0.619998 0.092649 0.142583
H37   H     H_    0.877239 0.613555 0.131110 0.175207
C144  C     C_3   0.827413 0.611556 0.083163 -0.786142
H38   H     H_    0.786112 0.589113 0.094593 0.237199
H39   H     H_    0.820197 0.662285 0.082939 0.214653
H40   H     H_    0.833290 0.595257 0.056156 0.265092
O57   O     O_3   0.025726 0.391716 0.395704 -0.571477
C145  C     C_3   0.089821 0.379852 0.395373 0.146065
H41   H     H_    0.115912 0.418711 0.407330 0.141698
H42   H     H_    0.106898 0.372299 0.368559 0.175778
C146  C     C_3   0.102792 0.321678 0.416129 -0.786595
H43   H     H_    0.077197 0.282044 0.404900 0.239135
H44   H     H_    0.152986 0.311280 0.415589 0.215095
H45   H     H_    0.088259 0.328273 0.443380 0.261975
O58   O     O_3   0.393859 0.967064 0.395439 -0.569532
C147  C     C_3   0.386029 0.902401 0.395497 0.147478
H46   H     H_    0.426689 0.878948 0.407291 0.142505
H47   H     H_    0.378979 0.884467 0.368811 0.175232
C148  C     C_3   0.329205 0.886303 0.416759 -0.787430
H48   H     H_    0.287565 0.907884 0.405167 0.237539
H49   H     H_    0.322784 0.835475 0.417274 0.213923
H50   H     H_    0.334796 0.903210 0.443675 0.265512
O59   O     O_3   0.974043 0.608169 0.395674 -0.571485
C149  C     C_3   0.909939 0.620005 0.395395 0.146101
H51   H     H_    0.883917 0.581164 0.407383 0.141711
H52   H     H_    0.892739 0.627487 0.368594 0.175826
C150  C     C_3   0.897031 0.678223 0.416148 -0.786712
H53   H     H_    0.922559 0.717842 0.404890 0.239098
H54   H     H_    0.846830 0.688597 0.415645 0.215101
H55   H     H_    0.911680 0.671700 0.443389 0.261979
O60   O     O_3   0.606541 0.032792 0.395881 -0.569572
C151  C     C_3   0.614268 0.097464 0.395717 0.147024
H56   H     H_    0.573472 0.120996 0.407302 0.142628
H57   H     H_    0.621495 0.115051 0.368985 0.174969
C152  C     C_3   0.670899 0.113948 0.417087 -0.787337
H58   H     H_    0.712663 0.092270 0.405706 0.237287
H59   H     H_    0.677239 0.164792 0.417424 0.214020
H60   H     H_    0.665124 0.097413 0.444051 0.265662
O61   O     O_3   0.974314 0.391605 0.604134 -0.571555
C153  C     C_3   0.910216 0.379775 0.604525 0.146003
H61   H     H_    0.884100 0.418672 0.592641 0.141719
H62   H     H_    0.893232 0.372182 0.631350 0.175904
C154  C     C_3   0.897138 0.321647 0.583720 -0.786266
H63   H     H_    0.922764 0.281979 0.594871 0.239058
H64   H     H_    0.846942 0.311273 0.584315 0.215328
H65   H     H_    0.911554 0.328286 0.556457 0.261882
O62   O     O_3   0.605471 0.964298 0.604039 -0.572355
C155  C     C_3   0.612136 0.899514 0.603830 0.145266
H66   H     H_    0.570958 0.876837 0.592121 0.144372
H67   H     H_    0.619148 0.881305 0.630444 0.176118
C156  C     C_3   0.668484 0.882592 0.582353 -0.787964
H68   H     H_    0.710572 0.903578 0.593804 0.238474
H69   H     H_    0.674152 0.831674 0.581769 0.213802
H70   H     H_    0.662849 0.899633 0.555473 0.267147
O63   O     O_3   0.025801 0.608098 0.604492 -0.571520
C157  C     C_3   0.089889 0.620012 0.604708 0.146358
H71   H     H_    0.115923 0.581234 0.592642 0.141622
H72   H     H_    0.107177 0.627454 0.631499 0.176085
C158  C     C_3   0.102636 0.678292 0.584012 -0.786397
H73   H     H_    0.077085 0.717851 0.595345 0.239305
H74   H     H_    0.152823 0.688735 0.584473 0.215234
H75   H     H_    0.087903 0.671804 0.556779 0.261710
O64   O     O_3   0.394524 0.035875 0.603930 -0.572049
C159  C     C_3   0.387894 0.100663 0.603766 0.145567
H76   H     H_    0.429038 0.123304 0.592034 0.144378
H77   H     H_    0.381013 0.118885 0.630394 0.175908
C160  C     C_3   0.331462 0.117625 0.582346 -0.788090
H78   H     H_    0.289406 0.096707 0.593839 0.238305
H79   H     H_    0.325849 0.168548 0.581776 0.213803
H80   H     H_    0.336942 0.100542 0.555458 0.267092
O65   O     O_3   0.606974 0.968901 0.821469 -0.595819
C161  C     C_3   0.618002 0.904740 0.823757 0.158460
H81   H     H_    0.576002 0.877461 0.817014 0.132791
H82   H     H_    0.633458 0.891838 0.850197 0.184096
C162  C     C_3   0.668907 0.887377 0.798479 -0.815504
H83   H     H_    0.711879 0.912970 0.804833 0.255091
H84   H     H_    0.678263 0.837072 0.800087 0.205577
H85   H     H_    0.654588 0.898899 0.771665 0.272954
O66   O     O_3   0.891321 0.473886 0.823728 -0.584388
C163  C     C_3   0.856890 0.529119 0.821907 0.155962
H86   H     H_    0.881983 0.564470 0.806418 0.126522
H87   H     H_    0.847141 0.547956 0.848170 0.190182
C164  C     C_3   0.795407 0.516041 0.804387 -0.813416
H88   H     H_    0.768973 0.481513 0.819596 0.255651
H89   H     H_    0.767967 0.559225 0.802652 0.204222
H90   H     H_    0.803309 0.497869 0.777895 0.263603
O67   O     O_3   0.392757 0.030968 0.821488 -0.595746
C165  C     C_3   0.381687 0.095121 0.823808 0.158531
H91   H     H_    0.423645 0.122427 0.817054 0.132806
H92   H     H_    0.366308 0.108025 0.850259 0.184076
C166  C     C_3   0.330684 0.112431 0.798562 -0.815399
H93   H     H_    0.287754 0.086805 0.804928 0.255097
H94   H     H_    0.321291 0.162729 0.800194 0.205502
H95   H     H_    0.344922 0.100907 0.771736 0.272900
O68   O     O_3   0.109938 0.524939 0.824135 -0.584401
C167  C     C_3   0.144494 0.469740 0.822755 0.156442
H96   H     H_    0.119900 0.434284 0.807063 0.126819
H97   H     H_    0.153473 0.451045 0.849133 0.190618
C168  C     C_3   0.206500 0.482784 0.805854 -0.813549
H98   H     H_    0.232423 0.517419 0.821295 0.255364
H99   H     H_    0.234033 0.439619 0.804457 0.204404
H100  H     H_    0.199409 0.500804 0.779264 0.263551
O69   O     O_3   0.481810 0.888677 0.175806 -0.584255
C169  C     C_3   0.538986 0.857470 0.177151 0.155828
H101  H     H_    0.573231 0.884411 0.192485 0.126948
H102  H     H_    0.557729 0.849021 0.150730 0.188331
C170  C     C_3   0.529844 0.795250 0.194561 -0.813205
H103  H     H_    0.496503 0.767011 0.179502 0.254812
H104  H     H_    0.574586 0.770324 0.195919 0.205358
H105  H     H_    0.511868 0.801906 0.221197 0.263688
O70   O     O_3   0.109082 0.474606 0.176181 -0.584665
C171  C     C_3   0.143359 0.529938 0.177949 0.156165
H106  H     H_    0.118223 0.565255 0.193463 0.127028
H107  H     H_    0.152950 0.548743 0.151671 0.190260
C172  C     C_3   0.204947 0.517069 0.195397 -0.813170
H108  H     H_    0.231422 0.482581 0.180161 0.255138
H109  H     H_    0.232268 0.560333 0.197091 0.205484
H110  H     H_    0.197199 0.498933 0.221901 0.263416
O71   O     O_3   0.519732 0.109815 0.176297 -0.584189
C173  C     C_3   0.462508 0.140829 0.178232 0.155392
H111  H     H_    0.428534 0.113334 0.193416 0.126575
H112  H     H_    0.443377 0.150082 0.151979 0.187662
C174  C     C_3   0.471783 0.202480 0.196282 -0.812921
H113  H     H_    0.504857 0.231279 0.181407 0.255159
H114  H     H_    0.427014 0.227263 0.198091 0.205114
H115  H     H_    0.490151 0.194975 0.222770 0.263691
O72   O     O_3   0.890356 0.525190 0.175964 -0.584768
C175  C     C_3   0.855919 0.469931 0.177423 0.156472
H116  H     H_    0.880701 0.434533 0.193048 0.127246
H117  H     H_    0.846771 0.451197 0.151064 0.190656
C176  C     C_3   0.794026 0.482886 0.194482 -0.813412
H118  H     H_    0.767919 0.517468 0.179117 0.254945
H119  H     H_    0.766581 0.439677 0.195935 0.205597
H120  H     H_    0.801296 0.500938 0.221059 0.263391
O73   O     O_3   0.019015 0.389318 0.323948 -0.584286
C177  C     C_3   0.961894 0.358062 0.322312 0.155570
H121  H     H_    0.927715 0.385157 0.307027 0.126814
H122  H     H_    0.942979 0.349236 0.348651 0.188159
C178  C     C_3   0.971259 0.296098 0.304621 -0.813184
H123  H     H_    0.004540 0.267701 0.319614 0.255074
H124  H     H_    0.926567 0.271129 0.303041 0.205216
H125  H     H_    0.989411 0.303150 0.278058 0.263592
O74   O     O_3   0.391819 0.972396 0.323687 -0.584798
C179  C     C_3   0.356707 0.027197 0.321840 0.156405
H126  H     H_    0.381350 0.062815 0.306318 0.127026
H127  H     H_    0.346753 0.045978 0.348091 0.190897
C180  C     C_3   0.295368 0.013330 0.304351 -0.813096
H128  H     H_    0.269376 0.978511 0.319592 0.255254
H129  H     H_    0.267396 0.056171 0.302601 0.205448
H130  H     H_    0.303459 0.995205 0.277867 0.263397
O75   O     O_3   0.980327 0.610305 0.323903 -0.584304
C181  C     C_3   0.037433 0.641566 0.322173 0.155507
H131  H     H_    0.071567 0.614373 0.306916 0.126741
H132  H     H_    0.056438 0.650590 0.348485 0.188114
C182  C     C_3   0.027980 0.703393 0.304375 -0.813367
H133  H     H_    0.994747 0.731892 0.319338 0.255114
H134  H     H_    0.072658 0.728363 0.302720 0.205164
H135  H     H_    0.009728 0.696134 0.277837 0.263629
O76   O     O_3   0.609805 0.026159 0.324187 -0.584846
C183  C     C_3   0.645105 0.971420 0.322925 0.157067
H136  H     H_    0.621166 0.935687 0.307116 0.127455
H137  H     H_    0.654001 0.952775 0.349322 0.191434
C184  C     C_3   0.707157 0.985302 0.306288 -0.813197
H138  H     H_    0.732424 0.020244 0.321853 0.254885
H139  H     H_    0.735273 0.942503 0.304984 0.205681
H140  H     H_    0.700186 0.003275 0.279678 0.263310
O77   O     O_3   0.981396 0.388893 0.675873 -0.584009
C185  C     C_3   0.038521 0.357606 0.677310 0.155944
H141  H     H_    0.072780 0.384568 0.692623 0.126496
H142  H     H_    0.057302 0.348993 0.650914 0.188326
C186  C     C_3   0.029244 0.295492 0.694816 -0.814463
H143  H     H_    0.995891 0.267227 0.679781 0.255319
H144  H     H_    0.073943 0.270505 0.696247 0.204388
H145  H     H_    0.011219 0.302318 0.721429 0.263633
O78   O     O_3   0.606976 0.967122 0.676067 -0.591453
C187  C     C_3   0.644820 0.019956 0.678640 0.154908
H146  H     H_    0.620973 0.057326 0.693266 0.132982
H147  H     H_    0.658005 0.037403 0.652568 0.191129
C188  C     C_3   0.703641 0.003112 0.697930 -0.815462
H148  H     H_    0.728839 0.966343 0.683727 0.252934
H149  H     H_    0.733897 0.044302 0.700123 0.208337
H150  H     H_    0.692181 0.986348 0.724297 0.266558
O79   O     O_3   0.019799 0.609926 0.676275 -0.583960
C189  C     C_3   0.962635 0.641061 0.678165 0.155582
H151  H     H_    0.928579 0.613658 0.693344 0.126214
H152  H     H_    0.943566 0.650314 0.651899 0.187781
C190  C     C_3   0.972006 0.702720 0.696191 -0.814235
H153  H     H_    0.005162 0.731429 0.681319 0.255599
H154  H     H_    0.927285 0.727596 0.697965 0.204182
H155  H     H_    0.990317 0.695218 0.722691 0.263643
O80   O     O_3   0.392789 0.032884 0.675933 -0.591312
C191  C     C_3   0.355016 0.979990 0.678412 0.155258
H156  H     H_    0.378703 0.942857 0.693297 0.133085
H157  H     H_    0.342341 0.962197 0.652314 0.191019
C192  C     C_3   0.295794 0.996892 0.697272 -0.815083
H158  H     H_    0.270704 0.033337 0.682756 0.252744
H159  H     H_    0.265663 0.955615 0.699455 0.208288
H160  H     H_    0.306716 0.014105 0.723636 0.266257
Cl1   Cl    Cl    0.580343 0.822522 0.055849 -0.557779
Cl2   Cl    Cl    0.823142 0.426832 0.058722 -0.563295
Cl3   Cl    Cl    0.419954 0.177540 0.055926 -0.557235
Cl4   Cl    Cl    0.176946 0.573232 0.058721 -0.562991
Cl5   Cl    Cl    0.419437 0.822382 0.944242 -0.645757
Cl6   Cl    Cl    0.176866 0.426859 0.941283 -0.561548
Cl7   Cl    Cl    0.580242 0.177504 0.944142 -0.645718
Cl8   Cl    Cl    0.823061 0.572912 0.941249 -0.561034
Cl9   Cl    Cl    0.080030 0.322582 0.556001 -0.561497
Cl10  Cl    Cl    0.323358 0.929798 0.559722 -0.564356
Cl11  Cl    Cl    0.920148 0.677492 0.556026 -0.561053
Cl12  Cl    Cl    0.676738 0.070381 0.559683 -0.564458
Cl13  Cl    Cl    0.920052 0.322503 0.443975 -0.561059
Cl14  Cl    Cl    0.676737 0.928618 0.440564 -0.564723
Cl15  Cl    Cl    0.079797 0.677400 0.443946 -0.560830
Cl16  Cl    Cl    0.323199 0.071057 0.440496 -0.564048
O81   O     O_3   0.565162 0.686817 0.051167 -0.556448
C193  C     C_3   0.530781 0.684416 0.082268 0.185983
H161  H     H_    0.481664 0.671129 0.077731 0.130857
H162  H     H_    0.531715 0.729757 0.095672 0.182226
C194  C     C_3   0.559521 0.636610 0.106176 -0.831659
H163  H     H_    0.608223 0.649093 0.111861 0.259649
H164  H     H_    0.533323 0.634701 0.130829 0.195460
H165  H     H_    0.558336 0.590332 0.093823 0.258829
O82   O     O_3   0.687515 0.443411 0.054373 -0.552172
C195  C     C_3   0.685970 0.483131 0.083442 0.182258
H166  H     H_    0.671794 0.530982 0.076329 0.131939
H167  H     H_    0.731900 0.485082 0.096208 0.181817
C196  C     C_3   0.639552 0.458403 0.109493 -0.828338
H168  H     H_    0.653140 0.411292 0.117861 0.261831
H169  H     H_    0.638105 0.489111 0.132478 0.195533
H170  H     H_    0.592786 0.456541 0.097720 0.255575
O83   O     O_3   0.434950 0.313256 0.051171 -0.556444
C197  C     C_3   0.469435 0.315773 0.082253 0.186339
H171  H     H_    0.518561 0.328955 0.077686 0.130808
H172  H     H_    0.468468 0.270505 0.095707 0.182325
C198  C     C_3   0.440839 0.363751 0.106119 -0.831226
H173  H     H_    0.392140 0.351364 0.111844 0.259565
H174  H     H_    0.467125 0.365765 0.130755 0.195384
H175  H     H_    0.442039 0.409961 0.093711 0.258884
O84   O     O_3   0.312575 0.556746 0.054340 -0.552188
C199  C     C_3   0.314204 0.517075 0.083410 0.182441
H176  H     H_    0.328348 0.469207 0.076294 0.131961
H177  H     H_    0.268315 0.515150 0.096193 0.181848
C200  C     C_3   0.360708 0.541840 0.109441 -0.828027
H178  H     H_    0.347115 0.588941 0.117841 0.261779
H179  H     H_    0.362270 0.511134 0.132409 0.195514
H180  H     H_    0.407426 0.543738 0.097637 0.255605
O85   O     O_3   0.433176 0.686573 0.949542 -0.557685
C201  C     C_3   0.466627 0.683182 0.918155 0.195116
H181  H     H_    0.515974 0.670366 0.922318 0.133153
H182  H     H_    0.465016 0.728024 0.904292 0.175279
C202  C     C_3   0.437403 0.634314 0.895080 -0.832503
H183  H     H_    0.388433 0.646269 0.889773 0.259172
H184  H     H_    0.462789 0.631605 0.870187 0.195798
H185  H     H_    0.439295 0.588511 0.907920 0.259837
O86   O     O_3   0.312434 0.443841 0.945490 -0.550726
C203  C     C_3   0.313748 0.483819 0.916548 0.181926
H186  H     H_    0.327864 0.531630 0.923801 0.131126
H187  H     H_    0.267746 0.485798 0.903865 0.181933
C204  C     C_3   0.360068 0.459428 0.890332 -0.828489
H188  H     H_    0.346503 0.412391 0.881806 0.262111
H189  H     H_    0.361348 0.490379 0.867463 0.195737
H190  H     H_    0.406895 0.457514 0.902025 0.255398
O87   O     O_3   0.566487 0.313318 0.949428 -0.557604
C205  C     C_3   0.532830 0.316663 0.918093 0.195023
H191  H     H_    0.483534 0.329574 0.922331 0.133234
H192  H     H_    0.534271 0.271773 0.904248 0.175146
C206  C     C_3   0.561974 0.365412 0.894951 -0.832285
H193  H     H_    0.610879 0.353346 0.889558 0.259238
H194  H     H_    0.536404 0.368105 0.870103 0.195761
H195  H     H_    0.560269 0.411252 0.907781 0.259717
O88   O     O_3   0.687483 0.556118 0.945515 -0.550697
C207  C     C_3   0.686046 0.516078 0.916579 0.182276
H196  H     H_    0.672006 0.468267 0.923847 0.131107
H197  H     H_    0.731983 0.514112 0.903849 0.181905
C208  C     C_3   0.639570 0.540385 0.890412 -0.827887
H198  H     H_    0.653066 0.587409 0.881860 0.262049
H199  H     H_    0.638177 0.509378 0.867551 0.195631
H200  H     H_    0.592804 0.542307 0.902157 0.255402
O89   O     O_3   0.064839 0.186858 0.551305 -0.557980
C209  C     C_3   0.030257 0.184539 0.582336 0.187939
H201  H     H_    0.981161 0.171286 0.577701 0.131282
H202  H     H_    0.031147 0.229896 0.595723 0.182650
C210  C     C_3   0.058799 0.136743 0.606323 -0.834255
H203  H     H_    0.107505 0.149134 0.612061 0.258927
H204  H     H_    0.032495 0.134948 0.630943 0.195926
H205  H     H_    0.057562 0.090441 0.594003 0.259195
O90   O     O_3   0.187850 0.946882 0.555464 -0.551241
C211  C     C_3   0.186504 0.988624 0.583635 0.181969
H206  H     H_    0.171448 0.035702 0.575544 0.133715
H207  H     H_    0.232737 0.992177 0.595956 0.180142
C212  C     C_3   0.141115 0.965181 0.610606 -0.827018
H208  H     H_    0.155642 0.918952 0.619962 0.262491
H209  H     H_    0.139737 0.997565 0.632858 0.195871
H210  H     H_    0.094110 0.961743 0.599248 0.254247
O91   O     O_3   0.935170 0.813223 0.551266 -0.557975
C213  C     C_3   0.969786 0.815654 0.582303 0.188258
H211  H     H_    0.018899 0.828813 0.577672 0.131218
H212  H     H_    0.968844 0.770366 0.595735 0.182709
C214  C     C_3   0.941327 0.863608 0.606233 -0.833826
H213  H     H_    0.892611 0.851308 0.611973 0.258850
H214  H     H_    0.967658 0.865497 0.630857 0.195838
H215  H     H_    0.942606 0.909847 0.593866 0.259254
O92   O     O_3   0.812258 0.053409 0.555392 -0.551356
C215  C     C_3   0.813677 0.011811 0.583608 0.182303
H216  H     H_    0.828602 0.964659 0.575559 0.133549
H217  H     H_    0.767502 0.008406 0.595982 0.180143
C216  C     C_3   0.859251 0.035318 0.610502 -0.827005
H218  H     H_    0.844882 0.081641 0.619804 0.262433
H219  H     H_    0.860661 0.003071 0.632801 0.195886
H220  H     H_    0.906210 0.038573 0.599096 0.254284
O93   O     O_3   0.935162 0.186785 0.448707 -0.557742
C217  C     C_3   0.969778 0.184356 0.417688 0.187653
H221  H     H_    0.018876 0.171127 0.422343 0.131155
H222  H     H_    0.968891 0.229665 0.404276 0.182637
C218  C     C_3   0.941270 0.136470 0.393720 -0.832682
H223  H     H_    0.892584 0.148870 0.387935 0.259311
H224  H     H_    0.967632 0.134552 0.369122 0.195783
H225  H     H_    0.942447 0.090217 0.406076 0.259040
O94   O     O_3   0.812328 0.945492 0.444895 -0.551638
C219  C     C_3   0.813672 0.986397 0.416366 0.181575
H226  H     H_    0.828213 0.033848 0.424084 0.132916
H227  H     H_    0.767579 0.989127 0.403830 0.181493
C220  C     C_3   0.859590 0.962531 0.389778 -0.828217
H228  H     H_    0.845603 0.915880 0.380806 0.262083
H229  H     H_    0.860910 0.994217 0.367228 0.195872
H230  H     H_    0.906497 0.959888 0.401326 0.254946
O95   O     O_3   0.064666 0.813122 0.448666 -0.557718
C221  C     C_3   0.029959 0.815506 0.417660 0.187614
H231  H     H_    0.980884 0.828774 0.422334 0.131156
H232  H     H_    0.030781 0.770167 0.404254 0.182629
C222  C     C_3   0.058422 0.863326 0.393676 -0.832627
H233  H     H_    0.107081 0.850883 0.387870 0.259346
H234  H     H_    0.031982 0.865214 0.369090 0.195761
H235  H     H_    0.057314 0.909603 0.406030 0.259008
O96   O     O_3   0.187588 0.054439 0.444910 -0.551672
C223  C     C_3   0.186094 0.013461 0.416393 0.182051
H236  H     H_    0.171685 0.966000 0.424138 0.132813
H237  H     H_    0.232101 0.010778 0.403782 0.181524
C224  C     C_3   0.139946 0.037201 0.389881 -0.827615
H238  H     H_    0.153802 0.083848 0.380873 0.261998
H239  H     H_    0.138496 0.005455 0.367342 0.195791
H240  H     H_    0.093120 0.039814 0.401509 0.254949

loop_
_geom_bond_atom_site_label_1
_geom_bond_atom_site_label_2
_ccdc_geom_bond_type
O68   C167  S    
O23   Zn1   S    
C192  H158  S    
C205  C206  S    
C39   C87   S    
C93   N8    A    
C53   C69   A    
C51   C85   A    
C162  H83   S    
C112  Cl16  S    
C15   C32   S    
O12   Zn8   S    
O78   C187  S    
C208  H200  S    
C50   O58   S    
C173  H111  S    
C46   C62   A    
C214  H215  S    
O92   C215  S    
C209  H201  S    
C98   C114  A    
C7    O15   A    
C104  Cl8   S    
C4    O4    A    
C36   O24   A    
C210  H205  S    
C14   C128  A    
C167  C168  S    
C212  H208  S    
N2    N13   A    
O6    Zn2   S    
C172  H110  S    
C141  H32   S    
C181  C182  S    
C182  H134  S    
C137  H21   S    
C214  H214  S    
C3    C19   S    
C219  H226  S    
C47   C83   A    
O2    Zn2   S    
C11   C115  A    
C59   C73   A    
C216  H218  S    
C90   N15   A    
C157  C158  S    
C170  H105  S    
C13   C125  A    
O90   C211  S    
C15   C127  A    
O54   C139  S    
C181  H132  S    
C42   C58   A    
C108  C124  A    
C92   N9    A    
C55   O63   S    
C166  H94   S    
C9    C26   S    
C153  H62   S    
C2    O8    A    
C168  H100  S    
C137  H22   S    
C65   C77   A    
C142  H34   S    
C13   C30   S    
C24   C110  A    
C56   O64   S    
C19   C99   A    
C163  H86   S    
C188  H150  S    
C175  H117  S    
N1    N14   A    
O91   C213  S    
C163  C164  S    
C148  H50   S    
C33   O17   A    
O79   C189  S    
C217  H221  S    
C54   C70   A    
C218  H225  S    
C23   C107  A    
C159  C160  S    
O48   Zn12  S    
C220  H228  S    
C18   C104  A    
C164  H90   S    
C135  H17   S    
C28   O36   A    
C46   C84   A    
C26   O38   A    
C123  O91   S    
O30   Zn6   S    
O71   C173  S    
C192  H160  S    
C145  H42   S    
O89   C209  S    
C162  H85   S    
O13   Zn7   S    
C213  H211  S    
C189  H152  S    
C149  C150  S    
C221  H231  S    
C182  H133  S    
C223  C224  S    
C6    O16   A    
C50   C66   A    
O62   C155  S    
C203  H186  S    
C4    O6    A    
C176  H118  S    
C141  C142  S    
O7    Zn1   S    
C97   Cl1   S    
C68   O76   S    
C40   C88   S    
C52   C86   A    
C16   C124  A    
C54   O62   S    
O74   C179  S    
C54   C88   A    
C184  H139  S    
C161  C162  S    
O46   Zn12  S    
C151  H56   S    
C224  H238  S    
O53   C137  S    
O14   Zn6   S    
O72   C175  S    
C129  H2    S    
C165  H91   S    
C119  O87   S    
C45   O53   S    
C90   N13   A    
C48   C64   A    
C91   N12   A    
C4    C20   S    
C57   O65   S    
C5    C21   S    
C194  H163  S    
C158  H73   S    
C31   O43   A    
O64   C159  S    
C207  H196  S    
C102  Cl6   S    
C202  H184  S    
C180  H128  S    
O69   C169  S    
C92   N11   A    
C133  H11   S    
C55   C71   A    
C96   N1    A    
C174  H114  S    
C10   C27   S    
C149  H52   S    
C3    O3    A    
O67   C165  S    
C1    O1    A    
C67   C77   A    
C14   C31   S    
C134  H15   S    
C203  C204  S    
C71   C79   A    
C178  H123  S    
O77   C185  S    
C71   O79   S    
C143  C144  S    
C193  C194  S    
C140  H28   S    
O60   C151  S    
C38   C86   S    
O21   Zn3   S    
C33   O19   A    
C34   O20   A    
C37   O25   A    
C211  H206  S    
O10   Zn6   S    
C221  H232  S    
C156  H69   S    
C60   O68   S    
C58   O66   S    
C48   O56   S    
C13   C121  A    
C195  C196  S    
C138  H23   S    
C57   C73   A    
C64   O72   S    
C157  H72   S    
C169  H101  S    
C202  H183  S    
C154  H64   S    
C207  C208  S    
C95   N2    A    
C29   O47   A    
C191  H156  S    
C129  H1    S    
C136  H18   S    
C189  C190  S    
C43   C59   A    
C196  H168  S    
O58   C147  S    
C160  H79   S    
C45   C83   A    
C126  O94   S    
C36   O22   A    
C222  H234  S    
C94   N7    A    
C185  H142  S    
C110  Cl14  S    
C176  H120  S    
C197  H172  S    
C200  H179  S    
O8    Zn4   S    
O16   Zn8   S    
C10   C120  A    
C211  C212  S    
C39   O31   A    
C40   O32   A    
C161  H81   S    
C59   O67   S    
C133  C134  S    
C56   C72   A    
C132  H8    S    
C198  H174  S    
C171  C172  S    
C133  H12   S    
C44   O52   S    
C27   O37   A    
O82   C195  S    
C91   N10   A    
C144  H39   S    
C158  H75   S    
C106  C122  A    
C191  C192  S    
C206  H193  S    
C100  Cl4   S    
O17   Zn1   S    
C53   C87   A    
C51   C67   A    
C180  H130  S    
C167  H97   S    
C196  H169  S    
C169  C170  S    
C159  H76   S    
C110  C126  A    
C96   N3    A    
C22   C112  A    
C195  H166  S    
C183  H136  S    
C43   C81   A    
O33   Zn9   S    
C69   C79   A    
C178  H125  S    
O11   Zn7   S    
C58   C74   A    
O25   Zn5   S    
C215  H216  S    
C140  H30   S    
C209  C210  S    
C144  H40   S    
C179  H126  S    
O22   Zn2   S    
C34   O18   A    
C37   O27   A    
C21   C109  A    
O20   Zn4   S    
C38   O28   A    
C143  H36   S    
C208  H199  S    
C23   C111  A    
C1    C17   S    
C142  H35   S    
C9    C113  A    
C28   O40   A    
C53   O61   S    
C72   C80   A    
C42   O50   S    
O73   C177  S    
O5    Zn3   S    
C209  H202  S    
O94   C219  S    
C69   O77   S    
C7    C23   S    
C8    C24   S    
C29   O41   A    
O42   Zn11  S    
O28   Zn8   S    
C205  H192  S    
C30   O46   A    
C55   C87   A    
C193  H161  S    
C136  H20   S    
C172  H109  S    
C105  Cl9   S    
C114  O82   S    
C40   O30   A    
C183  C184  S    
C214  H213  S    
O34   Zn9   S    
C147  H46   S    
C159  H77   S    
C34   C82   S    
O83   C197  S    
C17   C97   A    
C155  C156  S    
C12   C116  A    
C215  C216  S    
O75   C181  S    
C14   C122  A    
O29   Zn7   S    
C212  H209  S    
C70   O78   S    
C100  C116  A    
C107  C123  A    
C39   O29   A    
C8    O14   A    
C182  H135  S    
N6    N9    A    
C166  H93   S    
C157  H71   S    
O50   C131  S    
C132  H10   S    
C168  H99   S    
C137  C138  S    
O76   C183  S    
O65   C161  S    
C43   O51   S    
C27   O35   A    
C134  H14   S    
C44   C82   A    
C215  H217  S    
C47   C63   A    
O85   C201  S    
C223  H237  S    
C188  H149  S    
C89   N14   A    
C6    C22   S    
O43   Zn11  S    
C206  H195  S    
C32   O48   A    
C160  H78   S    
C80   C89   S    
C187  H146  S    
O31   Zn5   S    
C217  H222  S    
C139  H26   S    
C150  H55   S    
O35   Zn9   S    
C218  H224  S    
C147  C148  S    
C173  H112  S    
C1    O5    A    
C24   C108  A    
C52   O60   S    
C164  H89   S    
O1    Zn1   S    
O84   C199  S    
C10   C114  A    
O86   C203  S    
N4    N15   A    
N5    N10   A    
C184  H138  S    
O88   C207  S    
C192  H159  S    
C145  C146  S    
C62   C76   A    
C196  H170  S    
C197  H171  S    
O80   C191  S    
O32   Zn8   S    
N8    N11   A    
C162  H84   S    
C38   O26   A    
C199  H177  S    
O45   Zn12  S    
C68   C78   A    
N7    N12   A    
C66   C78   A    
C213  H212  S    
C220  H229  S    
C70   C80   A    
C116  O84   S    
C151  C152  S    
C130  H3    S    
C194  H164  S    
C35   C83   S    
C203  H187  S    
C173  C174  S    
O96   C223  S    
C187  C188  S    
O59   C149  S    
C210  H204  S    
C76   C93   S    
C146  H45   S    
C20   C100  A    
O19   Zn3   S    
C190  H155  S    
C41   C81   A    
C152  H59   S    
C108  Cl12  S    
C177  H122  S    
C165  H92   S    
C185  C186  S    
C6    O10   A    
C15   C123  A    
C224  H240  S    
C12   C118  A    
O36   Zn9   S    
C5    O13   A    
C181  H131  S    
C207  H197  S    
C148  H49   S    
O47   Zn12  S    
C65   O73   S    
C166  H95   S    
C174  H113  S    
C155  H66   S    
C216  H219  S    
C200  H180  S    
C223  H236  S    
O39   Zn10  S    
C117  O85   S    
C51   O59   S    
O61   C153  S    
C216  H220  S    
O38   Zn10  S    
C47   O55   S    
C175  H116  S    
C218  H223  S    
C89   N16   A    
C31   O45   A    
C165  C166  S    
C101  C117  A    
C138  H25   S    
C141  H31   S    
C41   C57   A    
C206  H194  S    
C211  H207  S    
C221  C222  S    
C156  H68   S    
O56   C143  S    
C111  Cl15  S    
C11   C28   S    
C44   C60   A    
C99   C115  A    
C45   C61   A    
C131  H7    S    
C135  H16   S    
C171  H107  S    
C112  C128  A    
C56   C88   A    
O15   Zn5   S    
C7    O11   A    
C66   O74   S    
C154  H63   S    
C103  Cl7   S    
C145  H41   S    
C150  H54   S    
C191  H157  S    
C73   C96   S    
C101  Cl5   S    
C16   C126  A    
C21   C105  A    
N3    N16   A    
C75   C94   S    
C99   Cl3   S    
C104  C120  A    
C199  C200  S    
C77   C92   S    
C189  H151  S    
C2    C18   S    
C9    C117  A    
C152  H58   S    
O37   Zn10  S    
C42   C82   A    
C11   C119  A    
C175  C176  S    
C222  H233  S    
C127  O95   S    
C124  O92   S    
C67   O75   S    
C122  O90   S    
C121  O89   S    
O49   C129  S    
C61   C75   A    
C176  H119  S    
C153  C154  S    
C113  O81   S    
C200  H178  S    
O52   C135  S    
C49   C65   A    
O63   C157  S    
C30   O42   A    
C37   C85   S    
C220  H230  S    
C146  H43   S    
C142  H33   S    
C149  H51   S    
C161  H82   S    
C20   C102  A    
O57   C145  S    
C135  C136  S    
C198  H173  S    
C2    O2    A    
C17   C101  A    
C185  H141  S    
O27   Zn7   S    
C130  H4    S    
C171  H106  S    
C163  H87   S    
C19   C103  A    
C79   C90   S    
C158  H74   S    
C179  C180  S    
C35   O23   A    
O3    Zn3   S    
C146  H44   S    
C180  H129  S    
C144  H38   S    
C102  C118  A    
C199  H176  S    
C174  H115  S    
C186  H145  S    
C61   O69   S    
C183  H137  S    
C177  C178  S    
C120  O88   S    
O93   C217  S    
C118  O86   S    
C219  C220  S    
C106  Cl10  S    
C178  H124  S    
C109  Cl13  S    
O4    Zn4   S    
C130  H5    S    
C187  H147  S    
C26   O34   A    
C63   O71   S    
C139  H27   S    
C140  H29   S    
O40   Zn10  S    
C32   O44   A    
C49   C85   A    
C107  Cl11  S    
O81   C193  S    
C93   N6    A    
C201  H182  S    
C131  H6    S    
C98   Cl2   S    
C156  H70   S    
C143  H37   S    
C152  H60   S    
C201  C202  S    
C190  H154  S    
C148  H48   S    
C22   C106  A    
C194  H165  S    
O95   C221  S    
C48   C84   A    
C138  H24   S    
C195  H167  S    
C201  H181  S    
O55   C141  S    
O51   C133  S    
C128  O96   S    
C154  H65   S    
O18   Zn2   S    
C208  H198  S    
C210  H203  S    
C64   C76   A    
C105  C121  A    
C193  H162  S    
C136  H19   S    
C172  H108  S    
C109  C125  A    
C190  H153  S    
C111  C127  A    
C160  H80   S    
C147  H47   S    
C224  H239  S    
C97   C113  A    
C155  H67   S    
O41   Zn11  S    
O26   Zn6   S    
C222  H235  S    
C63   C75   A    
C16   C29   S    
C150  H53   S    
C170  H103  S    
C204  H188  S    
C153  H61   S    
C62   O70   S    
C125  O93   S    
C134  H13   S    
C72   O80   S    
C177  H121  S    
C74   C95   S    
C103  C119  A    
C46   O54   S    
C212  H210  S    
C131  C132  S    
C52   C68   A    
C219  H227  S    
C78   C91   S    
C132  H9    S    
C202  H185  S    
C186  H144  S    
C168  H98   S    
O44   Zn11  S    
C3    O7    A    
C12   C25   S    
C198  H175  S    
C197  C198  S    
C204  H189  S    
O70   C171  S    
C151  H57   S    
C129  C130  S    
C188  H148  S    
C95   N4    A    
C94   N5    A    
C36   C84   S    
C5    O9    A    
C60   C74   A    
C184  H140  S    
C213  C214  S    
C179  H127  S    
C217  C218  S    
C41   O49   S    
C167  H96   S    
C8    O12   A    
C204  H190  S    
C169  H102  S    
C50   C86   A    
C186  H143  S    
O24   Zn4   S    
C115  O83   S    
O66   C163  S    
C205  H191  S    
C35   O21   A    
C18   C98   A    
C170  H104  S    
C164  H88   S    
O87   C205  S    
C25   O33   A    
C33   C81   S    
C139  C140  S    
C25   O39   A    
O9    Zn5   S    
C49   O57   S    
