data_mof_unit_2688.cif
_audit_creation_date              2013-03-05T15:44:01-0500
_audit_creation_method            fapswitch 2.2
_symmetry_space_group_name_H-M    P1
_symmetry_Int_Tables_number       1
_space_group_crystal_system       triclinic
_cell_length_a                    30.421398
_cell_length_b                    22.249487
_cell_length_c                    18.160547
_cell_angle_alpha                 90.000096
_cell_angle_beta                  123.275916
_cell_angle_gamma                 90.000019
_cell_volume                      10276.7110973

loop_
_atom_site_label
_atom_site_type_symbol
_atom_site_description
_atom_site_fract_x
_atom_site_fract_y
_atom_site_fract_z
_atom_type_partial_charge
C1    C     C_R   0.542908 0.583469 0.740426 -0.213513
C2    C     C_R   0.467235 0.391396 0.290811 -0.189830
C3    C     C_R   0.457092 0.583469 0.259574 -0.213514
C4    C     C_R   0.532765 0.391396 0.709189 -0.189831
C5    C     C_R   0.042909 0.083467 0.740427 -0.213515
C6    C     C_R   0.967235 0.891396 0.290811 -0.189831
C7    C     C_R   0.957091 0.083469 0.259574 -0.213513
C8    C     C_R   0.032765 0.891396 0.709188 -0.189831
H1    H     H_    0.516384 0.580713 0.762470 0.120326
H2    H     H_    0.498184 0.379683 0.281137 0.127915
H3    H     H_    0.483616 0.580713 0.237530 0.120326
H4    H     H_    0.501816 0.379683 0.718864 0.127915
H5    H     H_    0.016385 0.080711 0.762472 0.120325
H6    H     H_    0.998184 0.879683 0.281136 0.127915
H7    H     H_    0.983616 0.080713 0.237530 0.120326
H8    H     H_    0.001816 0.879683 0.718863 0.127915
N1    N     N_R   0.532970 0.559900 0.665210 -0.059065
N2    N     N_R   0.467030 0.440100 0.334790 -0.063002
N3    N     N_R   0.467030 0.559900 0.334790 -0.059065
N4    N     N_R   0.532970 0.440100 0.665210 -0.063002
N5    N     N_R   0.032970 0.059900 0.665210 -0.059065
N6    N     N_R   0.967030 0.940100 0.334790 -0.063002
N7    N     N_R   0.967030 0.059900 0.334790 -0.059065
N8    N     N_R   0.032970 0.940100 0.665210 -0.063002
C9    C     C_R   0.623630 0.612289 0.572385 -0.101466
C10   C     C_R   0.353238 0.425895 0.430167 0.024409
C11   C     C_R   0.376370 0.612289 0.427615 -0.101469
C12   C     C_R   0.646761 0.425894 0.569835 0.024399
C13   C     C_R   0.123629 0.112290 0.572385 -0.101465
C14   C     C_R   0.853238 0.925894 0.430167 0.024410
C15   C     C_R   0.876373 0.112292 0.427617 -0.101458
C16   C     C_R   0.146762 0.925894 0.569833 0.024407
H9    H     H_    0.649737 0.625495 0.639510 0.158662
H10   H     H_    0.319242 0.437227 0.366598 0.165226
H11   H     H_    0.350263 0.625494 0.360490 0.158663
H12   H     H_    0.680757 0.437231 0.633403 0.165227
H13   H     H_    0.149736 0.125496 0.639510 0.158662
H14   H     H_    0.819241 0.937227 0.366598 0.165228
H15   H     H_    0.850266 0.125500 0.360493 0.158663
H16   H     H_    0.180758 0.937227 0.633402 0.165228
N9    N     N_R   0.597900 0.559930 0.545530 -0.043834
N10   N     N_R   0.402100 0.440070 0.454470 -0.057485
N11   N     N_R   0.402100 0.559930 0.454470 -0.043834
N12   N     N_R   0.597900 0.440070 0.545530 -0.057485
N13   N     N_R   0.097900 0.059930 0.545530 -0.043833
N14   N     N_R   0.902100 0.940070 0.454470 -0.057485
N15   N     N_R   0.902100 0.059930 0.454470 -0.043832
N16   N     N_R   0.097900 0.940070 0.545530 -0.057485
C17   C     C_R   0.574316 0.612189 0.425715 -0.119361
C18   C     C_R   0.403275 0.421575 0.575169 -0.134196
C19   C     C_R   0.425684 0.612189 0.574286 -0.119361
C20   C     C_R   0.596726 0.421573 0.424834 -0.134195
C21   C     C_R   0.074316 0.112189 0.425714 -0.119362
C22   C     C_R   0.903275 0.921576 0.575169 -0.134197
C23   C     C_R   0.925686 0.112188 0.574288 -0.119360
C24   C     C_R   0.096725 0.921576 0.424831 -0.134197
H17   H     H_    0.554953 0.624790 0.357551 0.097681
H18   H     H_    0.415592 0.424892 0.643262 0.093461
H19   H     H_    0.445047 0.624790 0.642449 0.097681
H20   H     H_    0.584410 0.424887 0.356741 0.093462
H21   H     H_    0.054953 0.124790 0.357551 0.097681
H22   H     H_    0.915593 0.924893 0.643262 0.093461
H23   H     H_    0.945050 0.124787 0.642452 0.097680
H24   H     H_    0.084407 0.924893 0.356738 0.093461
N17   N     N_R   0.567170 0.559950 0.454460 -0.047813
N18   N     N_R   0.432830 0.440050 0.545540 -0.048540
N19   N     N_R   0.432830 0.559950 0.545540 -0.047813
N20   N     N_R   0.567170 0.440050 0.454460 -0.048540
N21   N     N_R   0.067170 0.059950 0.454460 -0.047813
N22   N     N_R   0.932830 0.940050 0.545540 -0.048540
N23   N     N_R   0.932830 0.059950 0.545540 -0.047814
N24   N     N_R   0.067170 0.940050 0.454460 -0.048540
C25   C     C_R   0.383392 0.583494 0.256973 0.314172
C26   C     C_R   0.606456 0.391807 0.710472 0.382100
C27   C     C_R   0.616608 0.583494 0.743027 0.314172
C28   C     C_R   0.393544 0.391807 0.289528 0.382098
C29   C     C_R   0.883392 0.083495 0.256973 0.314169
C30   C     C_R   0.106455 0.891807 0.710472 0.382096
C31   C     C_R   0.116609 0.083494 0.743028 0.314173
C32   C     C_R   0.893544 0.891807 0.289528 0.382095
N25   N     N_R   0.421470 0.559970 0.334770 -0.089678
N26   N     N_R   0.578530 0.440030 0.665230 -0.091947
N27   N     N_R   0.578530 0.559970 0.665230 -0.089679
N28   N     N_R   0.421470 0.440030 0.334770 -0.091947
N29   N     N_R   0.921470 0.059970 0.334770 -0.089678
N30   N     N_R   0.078530 0.940030 0.665230 -0.091947
N31   N     N_R   0.078530 0.059970 0.665230 -0.089679
N32   N     N_R   0.921470 0.940030 0.334770 -0.091947
C33   C     C_R   0.595009 0.599661 0.791259 -0.072563
C34   C     C_R   0.421172 0.359481 0.261444 -0.097073
C35   C     C_R   0.404991 0.599661 0.208741 -0.072564
C36   C     C_R   0.578828 0.359481 0.738556 -0.097074
C37   C     C_R   0.095010 0.099659 0.791261 -0.072562
C38   C     C_R   0.921172 0.859481 0.261444 -0.097073
C39   C     C_R   0.904991 0.099661 0.208741 -0.072565
C40   C     C_R   0.078828 0.859481 0.738555 -0.097073
C41   C     C_R   0.608721 0.646966 0.498795 0.041756
C42   C     C_R   0.352498 0.412714 0.503579 0.024644
C43   C     C_R   0.391279 0.646965 0.501206 0.041757
C44   C     C_R   0.647503 0.412710 0.496425 0.024648
C45   C     C_R   0.108720 0.146966 0.498794 0.041755
C46   C     C_R   0.852498 0.912714 0.503580 0.024643
C47   C     C_R   0.891284 0.146967 0.501210 0.041752
C48   C     C_R   0.147502 0.912714 0.496420 0.024644
Ni1   Ni    Ni4+2 0.483030 0.500000 0.604430 0.197689
Ni2   Ni    Ni4+2 0.516970 0.500000 0.395570 0.197689
Ni3   Ni    Ni4+2 0.983030 0.000000 0.604430 0.197687
Ni4   Ni    Ni4+2 0.016970 0.000000 0.395570 0.197688
Ni5   Ni    Ni4+2 0.587400 0.500000 0.604430 0.301094
Ni6   Ni    Ni4+2 0.412600 0.500000 0.395570 0.301095
Ni7   Ni    Ni4+2 0.087400 0.000000 0.604430 0.301095
Ni8   Ni    Ni4+2 0.912600 0.000000 0.395570 0.301097
C49   C     C_R   0.743040 0.389678 0.576420 -0.222404
C50   C     C_R   0.335308 0.735828 0.420548 -0.244085
C51   C     C_R   0.256956 0.389703 0.423600 -0.222410
C52   C     C_R   0.664692 0.735828 0.579453 -0.244084
C53   C     C_R   0.243044 0.889708 0.576398 -0.222411
C54   C     C_R   0.835326 0.235843 0.420566 -0.244087
C55   C     C_R   0.756956 0.889707 0.423602 -0.222411
C56   C     C_R   0.164690 0.235830 0.579451 -0.244084
C57   C     C_R   0.694757 0.399234 0.496076 0.109844
C58   C     C_R   0.372383 0.707943 0.500870 0.114812
C59   C     C_R   0.305246 0.399241 0.503938 0.109849
C60   C     C_R   0.627616 0.707943 0.499130 0.114812
C61   C     C_R   0.194754 0.899242 0.496060 0.109850
C62   C     C_R   0.872393 0.207945 0.500884 0.114814
C63   C     C_R   0.805246 0.899242 0.503940 0.109850
C64   C     C_R   0.127615 0.207943 0.499129 0.114812
C65   C     C_R   0.690834 0.388802 0.416415 -0.242243
C66   C     C_R   0.386318 0.735443 0.580446 -0.244800
C67   C     C_R   0.309179 0.388792 0.583602 -0.242240
C68   C     C_R   0.613681 0.735443 0.419555 -0.244800
C69   C     C_R   0.190819 0.888791 0.416395 -0.242239
C70   C     C_R   0.886321 0.235433 0.580464 -0.244793
C71   C     C_R   0.809181 0.888791 0.583605 -0.242239
C72   C     C_R   0.113681 0.235442 0.419553 -0.244799
C73   C     C_R   0.731999 0.360819 0.416766 0.137772
C74   C     C_R   0.356986 0.783668 0.580063 0.140313
C75   C     C_R   0.268016 0.360808 0.583256 0.137770
C76   C     C_R   0.643014 0.783668 0.419938 0.140313
C77   C     C_R   0.231982 0.860807 0.416741 0.137771
C78   C     C_R   0.856989 0.283653 0.580088 0.140312
C79   C     C_R   0.768018 0.860807 0.583259 0.137771
C80   C     C_R   0.143013 0.283666 0.419935 0.140313
C81   C     C_R   0.777799 0.344405 0.497864 0.029626
C82   C     C_R   0.314364 0.805508 0.498951 0.030692
C83   C     C_R   0.222209 0.344409 0.502161 0.029629
C84   C     C_R   0.685636 0.805508 0.501049 0.030692
C85   C     C_R   0.277790 0.844409 0.497836 0.029629
C86   C     C_R   0.814375 0.305508 0.498978 0.030686
C87   C     C_R   0.722210 0.844409 0.502164 0.029629
C88   C     C_R   0.185635 0.305509 0.501046 0.030692
C89   C     C_R   0.784312 0.361544 0.577916 0.128700
C90   C     C_R   0.305221 0.783585 0.418934 0.130220
C91   C     C_R   0.215686 0.361566 0.422108 0.128705
C92   C     C_R   0.694778 0.783586 0.581067 0.130220
C93   C     C_R   0.284314 0.861569 0.577888 0.128706
C94   C     C_R   0.805241 0.283601 0.418958 0.130226
C95   C     C_R   0.715686 0.861569 0.422112 0.128705
C96   C     C_R   0.194776 0.283588 0.581064 0.130221
C97   C     C_R   0.726042 0.343672 0.337491 -0.202520
C98   C     C_R   0.365980 0.805942 0.659378 -0.205162
C99   C     C_R   0.273983 0.343646 0.662533 -0.202525
C100  C     C_R   0.634019 0.805941 0.340622 -0.205163
C101  C     C_R   0.226014 0.843641 0.337464 -0.202526
C102  C     C_R   0.865973 0.305907 0.659407 -0.205161
C103  C     C_R   0.773986 0.843642 0.662536 -0.202526
C104  C     C_R   0.134020 0.305937 0.340619 -0.205162
C105  C     C_R   0.262629 0.805286 0.338560 -0.182281
C106  C     C_R   0.829745 0.344812 0.658324 -0.182243
C107  C     C_R   0.737371 0.805287 0.661440 -0.182281
C108  C     C_R   0.170245 0.344847 0.341702 -0.182252
C109  C     C_R   0.762658 0.305318 0.338586 -0.182279
C110  C     C_R   0.329756 0.844854 0.658294 -0.182252
C111  C     C_R   0.237368 0.305290 0.661438 -0.182281
C112  C     C_R   0.670244 0.844852 0.341706 -0.182251
H25   H     H_    0.747560 0.398706 0.638686 0.145806
H26   H     H_    0.326110 0.717517 0.358506 0.145052
H27   H     H_    0.252429 0.398749 0.361333 0.145784
H28   H     H_    0.673890 0.717517 0.641494 0.145052
H29   H     H_    0.247573 0.898757 0.638665 0.145780
H30   H     H_    0.826135 0.217541 0.358523 0.145045
H31   H     H_    0.752427 0.898755 0.361335 0.145781
H32   H     H_    0.173887 0.217520 0.641492 0.145051
H33   H     H_    0.654512 0.397659 0.353991 0.118187
H34   H     H_    0.416600 0.716405 0.642977 0.116498
H35   H     H_    0.345506 0.397635 0.646024 0.118185
H36   H     H_    0.583399 0.716405 0.357024 0.116498
H37   H     H_    0.154491 0.897630 0.353974 0.118184
H38   H     H_    0.916597 0.216386 0.642993 0.116493
H39   H     H_    0.845509 0.897631 0.646026 0.118185
H40   H     H_    0.083399 0.216403 0.357022 0.116497
H41   H     H_    0.691488 0.356794 0.274741 0.134404
H42   H     H_    0.399040 0.790221 0.722116 0.129905
H43   H     H_    0.308543 0.356756 0.725281 0.134405
H44   H     H_    0.600960 0.790220 0.277885 0.129904
H45   H     H_    0.191453 0.856749 0.274716 0.134405
H46   H     H_    0.899025 0.290174 0.722144 0.129900
H47   H     H_    0.808547 0.856750 0.725284 0.134405
H48   H     H_    0.100962 0.290215 0.277881 0.129904
H49   H     H_    0.255657 0.789383 0.276598 0.148285
H50   H     H_    0.835482 0.358513 0.720301 0.139897
H51   H     H_    0.744343 0.789385 0.723402 0.148285
H52   H     H_    0.164501 0.358563 0.279725 0.139901
H53   H     H_    0.755694 0.289430 0.276622 0.148277
H54   H     H_    0.335501 0.858571 0.720271 0.139902
H55   H     H_    0.244339 0.289390 0.723400 0.148284
H56   H     H_    0.664499 0.858569 0.279729 0.139901
C113  C     C_R   0.379908 0.625444 0.120086 0.146453
C114  C     C_R   0.595860 0.302163 0.787212 0.146365
C115  C     C_R   0.620092 0.625444 0.879915 0.146453
C116  C     C_R   0.404140 0.302162 0.212789 0.146365
C117  C     C_R   0.879908 0.125444 0.120086 0.146454
C118  C     C_R   0.095860 0.802163 0.787211 0.146365
C119  C     C_R   0.120093 0.125441 0.879917 0.146453
C120  C     C_R   0.904140 0.802163 0.212789 0.146365
C121  C     C_R   0.384499 0.699809 0.027588 -0.212848
C122  C     C_R   0.580493 0.199389 0.812822 -0.201988
C123  C     C_R   0.615501 0.699808 0.972415 -0.212847
C124  C     C_R   0.419508 0.199388 0.187178 -0.201989
C125  C     C_R   0.884499 0.199808 0.027586 -0.212850
C126  C     C_R   0.080493 0.699388 0.812820 -0.201989
C127  C     C_R   0.115503 0.199803 0.972420 -0.212846
C128  C     C_R   0.919507 0.699388 0.187179 -0.201990
C129  C     C_R   0.409490 0.663353 0.101526 -0.170090
C130  C     C_R   0.560826 0.256225 0.775051 -0.150596
C131  C     C_R   0.590510 0.663352 0.898476 -0.170092
C132  C     C_R   0.439174 0.256225 0.224949 -0.150596
C133  C     C_R   0.909490 0.163352 0.101525 -0.170092
C134  C     C_R   0.060826 0.756224 0.775049 -0.150597
C135  C     C_R   0.090511 0.163348 0.898480 -0.170090
C136  C     C_R   0.939173 0.756224 0.224950 -0.150597
C137  C     C_R   0.326171 0.617973 0.057525 -0.185594
C138  C     C_R   0.649553 0.291077 0.839426 -0.190169
C139  C     C_R   0.673829 0.617972 0.942476 -0.185595
C140  C     C_R   0.350447 0.291075 0.160576 -0.190170
C141  C     C_R   0.826171 0.117973 0.057525 -0.185595
C142  C     C_R   0.149553 0.791077 0.839426 -0.190170
C143  C     C_R   0.173830 0.117970 0.942477 -0.185595
C144  C     C_R   0.850447 0.791076 0.160574 -0.190170
C145  C     C_R   0.299361 0.659089 0.987956 0.059372
C146  C     C_R   0.668811 0.232777 0.862913 0.084741
C147  C     C_R   0.700639 0.659087 0.012046 0.059371
C148  C     C_R   0.331189 0.232774 0.137090 0.084741
C149  C     C_R   0.799360 0.159088 0.987955 0.059371
C150  C     C_R   0.168812 0.732777 0.862913 0.084743
C151  C     C_R   0.200641 0.159084 0.012048 0.059371
C152  C     C_R   0.831188 0.732776 0.137088 0.084743
C153  C     C_R   0.329630 0.701494 0.975215 0.184696
C154  C     C_R   0.634702 0.187202 0.856372 0.168309
C155  C     C_R   0.670371 0.701492 0.024787 0.184696
C156  C     C_R   0.365299 0.187200 0.143628 0.168309
C157  C     C_R   0.829629 0.201492 0.975213 0.184700
C158  C     C_R   0.134703 0.687202 0.856371 0.168309
C159  C     C_R   0.170372 0.201488 0.024791 0.184696
C160  C     C_R   0.865297 0.687201 0.143629 0.168310
C161  C     C_R   0.243759 0.665065 0.939399 0.069534
C162  C     C_R   0.721558 0.219571 0.894059 0.052845
C163  C     C_R   0.756241 0.665064 0.060602 0.069534
C164  C     C_R   0.278442 0.219568 0.105945 0.052842
C165  C     C_R   0.743759 0.165064 0.939399 0.069534
C166  C     C_R   0.221559 0.719572 0.894059 0.052842
C167  C     C_R   0.256242 0.165061 0.060603 0.069535
C168  C     C_R   0.778441 0.719570 0.105942 0.052842
C169  C     C_R   0.752177 0.258858 0.878737 -0.155180
C170  C     C_R   0.209800 0.620576 0.937462 -0.141057
C171  C     C_R   0.247824 0.258854 0.121268 -0.155178
C172  C     C_R   0.790200 0.620575 0.062538 -0.141058
C173  C     C_R   0.252178 0.758859 0.878739 -0.155176
C174  C     C_R   0.709799 0.120576 0.937463 -0.141058
C175  C     C_R   0.747823 0.758857 0.121264 -0.155177
C176  C     C_R   0.290202 0.120574 0.062538 -0.141058
C177  C     C_R   0.805065 0.248398 0.915843 -0.228883
C178  C     C_R   0.155606 0.630867 0.893346 -0.208252
C179  C     C_R   0.194937 0.248393 0.084162 -0.228875
C180  C     C_R   0.844394 0.630866 0.106654 -0.208252
C181  C     C_R   0.305065 0.748400 0.915846 -0.228877
C182  C     C_R   0.655605 0.130867 0.893347 -0.208251
C183  C     C_R   0.694935 0.748398 0.084157 -0.228877
C184  C     C_R   0.344396 0.130866 0.106653 -0.208252
H57   H     H_    0.827553 0.280230 0.904066 0.143032
H58   H     H_    0.130299 0.595256 0.890083 0.139712
H59   H     H_    0.172449 0.280225 0.095941 0.143036
H60   H     H_    0.869701 0.595256 0.109916 0.139711
H61   H     H_    0.327554 0.780233 0.904069 0.143037
H62   H     H_    0.630298 0.095257 0.890085 0.139711
H63   H     H_    0.672447 0.780231 0.095934 0.143037
H64   H     H_    0.369703 0.095256 0.109913 0.139711
H65   H     H_    0.676506 0.328332 0.859817 0.152497
H66   H     H_    0.305272 0.584258 0.068987 0.161651
H67   H     H_    0.323494 0.328329 0.140186 0.152499
H68   H     H_    0.694728 0.584257 0.931013 0.161651
H69   H     H_    0.176505 0.828332 0.859817 0.152496
H70   H     H_    0.805271 0.084258 0.068989 0.161650
H71   H     H_    0.823494 0.828331 0.140184 0.152497
H72   H     H_    0.194730 0.084255 0.931013 0.161652
H73   H     H_    0.518793 0.263875 0.735693 0.129159
H74   H     H_    0.451527 0.668298 0.147371 0.119913
H75   H     H_    0.481208 0.263875 0.264305 0.129159
H76   H     H_    0.548474 0.668297 0.852631 0.119913
H77   H     H_    0.018793 0.763874 0.735691 0.129159
H78   H     H_    0.951526 0.168297 0.147369 0.119913
H79   H     H_    0.981207 0.763874 0.264307 0.129159
H80   H     H_    0.048475 0.168293 0.852635 0.119913
H81   H     H_    0.407781 0.731226 0.017058 0.125787
H82   H     H_    0.553381 0.164564 0.805106 0.132779
H83   H     H_    0.592220 0.731224 0.982945 0.125787
H84   H     H_    0.446620 0.164564 0.194892 0.132779
H85   H     H_    0.907780 0.231223 0.017055 0.125787
H86   H     H_    0.053382 0.664562 0.805103 0.132779
H87   H     H_    0.092221 0.231218 0.982951 0.125787
H88   H     H_    0.946618 0.664563 0.194895 0.132779
H89   H     H_    0.735782 0.297827 0.837261 0.217085
H90   H     H_    0.223972 0.576697 0.966299 0.141875
H91   H     H_    0.264219 0.297823 0.162744 0.217086
H92   H     H_    0.776028 0.576696 0.033701 0.141875
H93   H     H_    0.235783 0.797829 0.837264 0.217086
H94   H     H_    0.723971 0.076697 0.966301 0.141875
H95   H     H_    0.764218 0.797827 0.162739 0.217087
H96   H     H_    0.276030 0.076695 0.033699 0.141876
N33   N     N_R   0.328591 0.579591 0.223832 0.202895
O1    O     O_R   0.298648 0.626525 0.187922 -0.441453
O2    O     O_R   0.311354 0.534538 0.246671 -0.397110
N34   N     N_R   0.654710 0.374574 0.721237 0.189985
O3    O     O_R   0.697352 0.404681 0.774722 -0.432776
O4    O     O_R   0.657396 0.324683 0.686486 -0.446725
N35   N     N_R   0.671409 0.579592 0.776168 0.202895
O5    O     O_R   0.701351 0.626525 0.812079 -0.441452
O6    O     O_R   0.688646 0.534538 0.753329 -0.397109
N36   N     N_R   0.345291 0.374574 0.278765 0.189986
O7    O     O_R   0.302648 0.404679 0.225279 -0.432770
O8    O     O_R   0.342605 0.324682 0.313517 -0.446719
N37   N     N_R   0.828592 0.079593 0.223834 0.202897
O9    O     O_R   0.798649 0.126527 0.187924 -0.441447
O10   O     O_R   0.811354 0.034541 0.246674 -0.397108
N38   N     N_R   0.154709 0.874575 0.721237 0.189987
O11   O     O_R   0.197351 0.904682 0.774722 -0.432770
O12   O     O_R   0.157397 0.824682 0.686486 -0.446716
N39   N     N_R   0.171409 0.079591 0.776167 0.202895
O13   O     O_R   0.201352 0.126525 0.812078 -0.441453
O14   O     O_R   0.188646 0.034538 0.753327 -0.397110
N40   N     N_R   0.845290 0.874575 0.278763 0.189986
O15   O     O_R   0.802648 0.904682 0.225278 -0.432771
O16   O     O_R   0.842603 0.824683 0.313514 -0.446718

loop_
_geom_bond_atom_site_label_1
_geom_bond_atom_site_label_2
_geom_bond_distance
_ccdc_geom_bond_type
C49   H25   1.080417 S    
C65   H33   1.081837 S    
C178  H58   1.083487 S    
C84   C87   1.400981 A    
C111  H55   1.083735 S    
C21   N21   1.339866 A    
C68   H36   1.081521 S    
C31   N31   1.347593 A    
C158  C178  1.399191 A    
C69   H37   1.081825 S    
N37   O9    1.301400 A    
C171  C179  1.380983 A    
N20   Ni2   1.860891 S    
C72   H40   1.081522 S    
C41   C60   1.472172 S    
C27   N35   1.431077 S    
N22   Ni3   1.860888 S    
C45   C64   1.472173 S    
C40   C118  1.474188 S    
C14   H14   1.075068 S    
C26   C36   1.397916 A    
C2    C34   1.390047 A    
C47   C62   1.472169 S    
C30   C40   1.397915 A    
N34   O3    1.300882 A    
C6    C38   1.390046 A    
C173  H93   1.074996 S    
N2    N28   1.385801 A    
C16   C48   1.377297 A    
C3    N3    1.333812 A    
N11   Ni6   1.843666 S    
C4    H4    1.080181 S    
C182  H62   1.083487 S    
C5    H5    1.081487 S    
C7    H7    1.081488 S    
C8    H8    1.080182 S    
C132  H75   1.082608 S    
C146  C162  1.408957 A    
C133  H78   1.082720 S    
C171  H91   1.074996 S    
C25   N25   1.347594 A    
C28   N36   1.423093 S    
C126  C158  1.409751 A    
C101  C105  1.394668 A    
C51   C59   1.407058 A    
N36   O7    1.300883 A    
N13   N21   1.382981 A    
C145  C153  1.423178 A    
C9    N9    1.337451 A    
N40   O15   1.300883 A    
N19   Ni1   1.860890 S    
C103  C107  1.394667 A    
C11   H11   1.068043 S    
C149  C157  1.423182 A    
C12   N12   1.335588 A    
C13   N13   1.337453 A    
C102  H46   1.083755 S    
C82   C90   1.408356 A    
C11   C43   1.386329 A    
C14   C46   1.377298 A    
C141  C149  1.402683 A    
C74   C98   1.400982 A    
N8    Ni3   1.860786 S    
C134  H77   1.082607 S    
C139  C147  1.402683 A    
C168  C175  1.411924 A    
C52   H28   1.080646 S    
C54   C94   1.392214 A    
C119  C143  1.397421 A    
C66   C74   1.393110 A    
C117  C133  1.402753 A    
C128  C160  1.409751 A    
C116  C132  1.403935 A    
C104  H48   1.083749 S    
N38   O11   1.300883 A    
N13   Ni7   1.843669 S    
C180  H60   1.083488 S    
C112  H56   1.083811 S    
C32   N32   1.334922 A    
C166  C173  1.411924 A    
C73   C97   1.401708 A    
C78   C86   1.411139 A    
C115  C139  1.397420 A    
N14   N22   1.382979 A    
C3    H3    1.081487 S    
C17   C41   1.389698 A    
C172  H92   1.079595 S    
N3    Ni2   1.860782 S    
C65   C73   1.395427 A    
N25   Ni6   1.843720 S    
C62   C70   1.403663 A    
C55   C95   1.389827 A    
N33   O1    1.301400 A    
C110  H54   1.083809 S    
C175  H95   1.074995 S    
C160  C180  1.399191 A    
C131  H76   1.082719 S    
C50   C90   1.392195 A    
C23   N23   1.339850 A    
C183  H63   1.084425 S    
C152  C168  1.408955 A    
C6    N6    1.348200 A    
N4    N26   1.385798 A    
C36   C114  1.474190 S    
C148  C164  1.408953 A    
N29   Ni8   1.843720 S    
C149  C165  1.421124 A    
C122  H82   1.083262 S    
C3    C35   1.374242 A    
C118  C142  1.388677 A    
C26   N34   1.423097 S    
C78   C102  1.400993 A    
C17   H17   1.076010 S    
C60   C68   1.403659 A    
C138  H65   1.078573 S    
C70   H38   1.081522 S    
C163  C172  1.417191 A    
C20   H20   1.080080 S    
C125  H85   1.084159 S    
N24   Ni4   1.860891 S    
C153  C181  1.387779 A    
C50   H26   1.080647 S    
C23   H23   1.076006 S    
C89   C106  1.402323 A    
C24   H24   1.080080 S    
C29   N37   1.431078 S    
C179  H59   1.084427 S    
C81   C86   1.400981 A    
C93   C110  1.402319 A    
C71   C79   1.395408 A    
C29   N29   1.347592 A    
C176  C184  1.401062 A    
N9    Ni5   1.843669 S    
C31   N39   1.431077 S    
C114  C130  1.403936 A    
C121  C153  1.396474 A    
N16   N24   1.382981 A    
C116  C140  1.388680 A    
C125  C157  1.396474 A    
C18   C42   1.382570 A    
C147  C155  1.423180 A    
C173  C181  1.380985 A    
C120  C144  1.388678 A    
N26   Ni5   1.843720 S    
N35   O6    1.300190 A    
C19   N19   1.339868 A    
C143  H72   1.074961 S    
C126  H86   1.083260 S    
C24   N24   1.340798 A    
C144  H71   1.078573 S    
C181  H61   1.084424 S    
C20   C44   1.382582 A    
C129  H74   1.082721 S    
C87   C95   1.407853 A    
N2    Ni2   1.860780 S    
C6    H6    1.080180 S    
C172  C180  1.401060 A    
C5    N5    1.333813 A    
C55   H31   1.080400 S    
C56   H32   1.080648 S    
C79   C103  1.401690 A    
C138  C146  1.390518 A    
C9    C41   1.386329 A    
C102  C106  1.393028 A    
C95   C112  1.402319 A    
C96   C111  1.402554 A    
N18   Ni1   1.860888 S    
C13   H13   1.068044 S    
C83   C91   1.407854 A    
C10   N10   1.335608 A    
C56   C96   1.392197 A    
C169  C177  1.380985 A    
C79   C87   1.411357 A    
C14   N14   1.335610 A    
C100  H44   1.083748 S    
C76   C100  1.400979 A    
C1    N1    1.333812 A    
C75   C99   1.401694 A    
N30   Ni7   1.843720 S    
N10   Ni6   1.843670 S    
C80   C88   1.411137 A    
C74   C82   1.411135 A    
C7    N7    1.333812 A    
C175  C183  1.380984 A    
C8    N8    1.348199 A    
C122  C130  1.406161 A    
C169  H89   1.074995 S    
C140  H67   1.078570 S    
C151  C167  1.421125 A    
C67   C75   1.395408 A    
C141  H70   1.074960 S    
C27   C33   1.399983 A    
C49   C57   1.407070 A    
C126  C134  1.406163 A    
N11   N19   1.382979 A    
C103  H47   1.083656 S    
C15   N15   1.337469 A    
C176  H96   1.079595 S    
N3    N25   1.385801 A    
N8    N30   1.385798 A    
C121  C129  1.385182 A    
C55   C63   1.407057 A    
N23   Ni3   1.860890 S    
C122  C154  1.409752 A    
C35   C113  1.468128 S    
C28   N28   1.334924 A    
N5    N31   1.385798 A    
C33   C115  1.468128 S    
N36   O8    1.301470 A    
C67   H35   1.081826 S    
C154  C182  1.399192 A    
C73   C81   1.411367 A    
C63   C71   1.404096 A    
C64   C72   1.403659 A    
N40   O16   1.301468 A    
N31   Ni7   1.843716 S    
C174  H94   1.079594 S    
C124  C132  1.406162 A    
C143  C151  1.402683 A    
C44   C57   1.471896 S    
C108  H52   1.083812 S    
C91   C108  1.402319 A    
C48   C61   1.471897 S    
C97   H41   1.083663 S    
C21   C45   1.389696 A    
N6    N32   1.385801 A    
C150  C166  1.408954 A    
N12   Ni5   1.843669 S    
C54   H30   1.080656 S    
C99   C111  1.394666 A    
C123  C155  1.396472 A    
C16   N16   1.335609 A    
C113  C129  1.402749 A    
C26   N26   1.334923 A    
C164  C167  1.412311 A    
C127  C135  1.385182 A    
N37   O10   1.300190 A    
C161  C166  1.412311 A    
C18   H18   1.080080 S    
C1    H1    1.081488 S    
C24   C48   1.382568 A    
N38   O12   1.301469 A    
C163  C168  1.412311 A    
C22   H22   1.080080 S    
C90   C105  1.402554 A    
C159  C179  1.387778 A    
C146  C154  1.408476 A    
C184  H64   1.083487 S    
C101  H45   1.083656 S    
C70   C78   1.393093 A    
C82   C85   1.400982 A    
C97   C109  1.394676 A    
C94   C109  1.402564 A    
N39   O13   1.301401 A    
C99   H43   1.083657 S    
C52   C92   1.392197 A    
C142  C150  1.390521 A    
C66   H34   1.081522 S    
C13   C45   1.386330 A    
C147  C163  1.421124 A    
C71   H39   1.081824 S    
C145  C161  1.421126 A    
C43   C58   1.472172 S    
C30   N38   1.423096 S    
C32   C38   1.397916 A    
C118  C134  1.403936 A    
N4    Ni1   1.860786 S    
C32   N40   1.423095 S    
C86   C94   1.408370 A    
C59   C67   1.404099 A    
C77   C101  1.401690 A    
C22   C46   1.382570 A    
C161  C170  1.417190 A    
C57   C65   1.404110 A    
C123  H83   1.084160 S    
C56   C64   1.406938 A    
C68   C76   1.393112 A    
C150  C158  1.408477 A    
C69   C77   1.395407 A    
C177  H57   1.084424 S    
C174  C182  1.401058 A    
C156  C184  1.399191 A    
N35   O5    1.301401 A    
C72   C80   1.393108 A    
C157  C177  1.387778 A    
C34   C116  1.474193 S    
C27   N27   1.347595 A    
C170  C178  1.401059 A    
N6    Ni4   1.860780 S    
N7    Ni4   1.860782 S    
C100  C112  1.393040 A    
C114  C138  1.388678 A    
C107  H51   1.083734 S    
C105  H49   1.083736 S    
N32   Ni8   1.843719 S    
C11   N11   1.337450 A    
C104  C108  1.393041 A    
C12   H12   1.075071 S    
C125  C133  1.385182 A    
C144  C152  1.390519 A    
C109  H53   1.083745 S    
C84   C92   1.408354 A    
C123  C131  1.385181 A    
C85   C93   1.407852 A    
C28   C34   1.397916 A    
C4    C36   1.390045 A    
C151  C159  1.423181 A    
C88   C96   1.408356 A    
C2    N2    1.348200 A    
C8    C40   1.390047 A    
C76   C84   1.411134 A    
C77   C85   1.411356 A    
C75   C83   1.411359 A    
C17   N17   1.339867 A    
C80   C104  1.400981 A    
C119  C135  1.402752 A    
C170  H90   1.079596 S    
C31   C37   1.399983 A    
C117  C141  1.397420 A    
C128  C136  1.406162 A    
C142  H69   1.078571 S    
C53   H29   1.080400 S    
N15   Ni8   1.843666 S    
C23   C47   1.389687 A    
C137  C145  1.402684 A    
C10   H10   1.075067 S    
C52   C60   1.406934 A    
N33   O2    1.300192 A    
C22   N22   1.340798 A    
N27   Ni5   1.843716 S    
C121  H81   1.084162 S    
C124  H84   1.083261 S    
N14   Ni8   1.843670 S    
C20   N20   1.340814 A    
C81   C89   1.407864 A    
C30   N30   1.334921 A    
C115  C131  1.402751 A    
C127  H87   1.084162 S    
C21   H21   1.076008 S    
C128  H88   1.083259 S    
C135  H80   1.082720 S    
N21   Ni4   1.860887 S    
C136  H79   1.082608 S    
C155  C183  1.387779 A    
C19   C43   1.389698 A    
C42   C59   1.471896 S    
C53   C93   1.389830 A    
C139  H68   1.074962 S    
C25   C35   1.399982 A    
C46   C63   1.471894 S    
N9    N17   1.382981 A    
C29   C39   1.399985 A    
N28   Ni6   1.843719 S    
N1    N27   1.385798 A    
C15   C47   1.386336 A    
N1    Ni1   1.860781 S    
C106  H50   1.083826 S    
N15   N23   1.382979 A    
C98   H42   1.083747 S    
C164  C171  1.411926 A    
C18   N18   1.340801 A    
C165  C174  1.417192 A    
N5    Ni3   1.860781 S    
C10   C42   1.377296 A    
N34   O4    1.301469 A    
C167  C176  1.417191 A    
N39   O14   1.300191 A    
C39   C117  1.468127 S    
N12   N20   1.382981 A    
C162  C165  1.412309 A    
C19   H19   1.076009 S    
C2    H2    1.080182 S    
N17   Ni2   1.860887 S    
C61   C69   1.404096 A    
C1    C33   1.374243 A    
C148  C156  1.408478 A    
C51   C91   1.389828 A    
C130  H73   1.082608 S    
C49   C89   1.389813 A    
C37   C119  1.468129 S    
C5    C37   1.374244 A    
C152  C160  1.408475 A    
C98   C110  1.393039 A    
C4    N4    1.348199 A    
C25   N33   1.431080 S    
C7    C39   1.374244 A    
C92   C107  1.402553 A    
C38   C120  1.474189 S    
C140  C148  1.390521 A    
C124  C156  1.409751 A    
C83   C88   1.400981 A    
C12   C44   1.377286 A    
C53   C61   1.407056 A    
C120  C136  1.403935 A    
C15   H15   1.068049 S    
C16   H16   1.075066 S    
C113  C137  1.397420 A    
C50   C58   1.406936 A    
C127  C159  1.396474 A    
N16   Ni7   1.843669 S    
N7    N29   1.385801 A    
C9    H9    1.068044 S    
N10   N18   1.382979 A    
C137  H66   1.074960 S    
C54   C62   1.406943 A    
C162  C169  1.411926 A    
C58   C66   1.403660 A    
C51   H27   1.080404 S    
