data_mof_unit_1801.cif
_audit_creation_date              2012-12-11T15:21:17-0500
_audit_creation_method            fapswitch 2.2
_symmetry_space_group_name_H-M    P1
_symmetry_Int_Tables_number       1
_space_group_crystal_system       triclinic
_cell_length_a                    18.332914
_cell_length_b                    18.332881
_cell_length_c                    51.235274
_cell_angle_alpha                 89.886729
_cell_angle_beta                  90.324743
_cell_angle_gamma                 119.884659
_cell_volume                      14929.9488471

loop_
_atom_site_label
_atom_site_type_symbol
_atom_type_description
_atom_site_fract_x
_atom_site_fract_y
_atom_site_fract_z
_atom_type_partial_charge
C1    C     C_R   0.409311 0.583941 0.287528 0.544305
C2    C     C_R   0.408251 0.584664 0.212185 0.550074
C3    C     C_R   0.052506 0.523330 0.361953 0.233409
C4    C     C_R   0.093838 0.524788 0.133586 0.230899
C5    C     C_R   0.630810 0.492838 0.669919 -0.148726
C6    C     C_R   0.627528 0.524559 0.820520 -0.144124
C7    C     C_R   0.534542 0.342856 0.667669 -0.136852
C8    C     C_R   0.502488 0.389884 0.828257 -0.135012
C9    C     C_R   0.537409 0.345954 0.640614 -0.037270
C10   C     C_R   0.494470 0.417249 0.852876 -0.059646
C11   C     C_R   0.584064 0.422715 0.627515 0.248487
C12   C     C_R   0.553281 0.498043 0.861702 0.241917
C13   C     C_R   0.622122 0.485578 0.474324 0.011451
C14   C     C_R   0.587193 0.571242 0.013487 0.017254
C15   C     C_R   0.539935 0.451529 0.463513 0.032992
C16   C     C_R   0.513599 0.567340 0.023688 0.036247
C17   C     C_R   0.468133 0.401056 0.479011 0.014544
C18   C     C_R   0.448709 0.559574 0.006672 0.015919
C19   C     C_R   0.691487 0.530208 0.457491 -0.151283
C20   C     C_R   0.647830 0.573789 0.031247 -0.144709
C21   C     C_R   0.377802 0.391862 0.442481 -0.110980
C22   C     C_R   0.372386 0.568005 0.044457 -0.124906
C23   C     C_R   0.410806 0.323649 0.520300 -0.123370
C24   C     C_R   0.384301 0.521765 0.962593 -0.124139
C25   C     C_R   0.007314 0.514362 0.443110 -0.032562
C26   C     C_R   0.062148 0.489930 0.051492 -0.031333
C27   C     C_R   0.419436 0.312414 0.546932 0.014174
C28   C     C_R   0.387302 0.506831 0.935807 -0.000928
C29   C     C_R   0.387547 0.372727 0.468007 -0.145008
C30   C     C_R   0.380352 0.564089 0.017622 -0.156486
C31   C     C_R   0.591511 0.176541 0.712142 0.541506
C32   C     C_R   0.590855 0.174749 0.787451 0.548931
C33   C     C_R   0.823979 0.415541 0.712300 0.544376
C34   C     C_R   0.825118 0.415834 0.787552 0.547368
C35   C     C_R   0.586001 0.405036 0.711309 0.543530
C36   C     C_R   0.584330 0.408973 0.787587 0.548252
C37   C     C_R   0.938962 0.478489 0.425433 0.027357
C38   C     C_R   0.999965 0.432310 0.068566 0.030983
C39   C     C_R   0.856858 0.439739 0.435107 -0.115796
C40   C     C_R   0.926870 0.364779 0.058208 -0.113176
C41   C     C_R   0.090119 0.555295 0.433415 0.029177
C42   C     C_R   0.135782 0.557924 0.061978 0.025956
C43   C     C_R   0.122788 0.556359 0.311607 0.015414
C44   C     C_R   0.129962 0.559137 0.187140 0.017904
C45   C     C_R   0.864524 0.427834 0.686648 0.011563
C46   C     C_R   0.874377 0.430156 0.811812 0.010219
C47   C     C_R   0.895579 0.450875 0.507417 0.013316
C48   C     C_R   0.964309 0.400232 0.986207 0.016212
C49   C     C_R   0.048023 0.541262 0.515365 0.018261
C50   C     C_R   0.096987 0.533753 0.979492 0.012965
C51   C     C_R   0.965015 0.490430 0.524933 0.030704
C52   C     C_R   0.023119 0.463557 0.969294 0.031085
C53   C     C_R   0.174206 0.590297 0.287491 0.537000
C54   C     C_R   0.173753 0.590069 0.212611 0.535085
C55   C     C_R   0.814797 0.397585 0.517911 -0.147096
C56   C     C_R   0.894835 0.328868 0.974942 -0.145292
C57   C     C_R   0.802583 0.385173 0.544637 -0.111434
C58   C     C_R   0.880251 0.322860 0.948248 -0.113640
C59   C     C_R   0.870022 0.425503 0.562090 0.027357
C60   C     C_R   0.934737 0.387159 0.931544 0.023447
C61   C     C_R   0.951460 0.478526 0.552322 -0.035761
C62   C     C_R   0.007164 0.457046 0.941896 -0.037347
C63   C     C_R   0.019484 0.519288 0.569924 0.030096
C64   C     C_R   0.063170 0.520636 0.924881 0.024524
C65   C     C_R   0.005330 0.506231 0.596900 0.417484
C66   C     C_R   0.044633 0.514755 0.897972 0.408430
C67   C     C_R   0.857725 0.413978 0.589191 0.441534
C68   C     C_R   0.917545 0.383325 0.904670 0.421041
C69   C     C_R   0.878267 0.367567 0.646046 -0.061230
C70   C     C_R   0.932551 0.378619 0.845071 -0.058066
C71   C     C_R   0.855498 0.358433 0.672318 -0.144055
C72   C     C_R   0.895708 0.370361 0.820525 -0.138747
C73   C     C_R   0.901608 0.507353 0.674670 -0.136484
C74   C     C_R   0.894528 0.500487 0.827576 -0.134499
C75   C     C_R   0.416170 0.825721 0.287554 0.531365
C76   C     C_R   0.415749 0.824966 0.212414 0.534764
C77   C     C_R   0.924270 0.516292 0.648477 -0.048277
C78   C     C_R   0.930582 0.508176 0.852197 -0.053326
C79   C     C_R   0.910694 0.446147 0.633861 0.244395
C80   C     C_R   0.947871 0.446256 0.861371 0.237755
C81   C     C_R   0.909321 0.463811 0.480084 0.014543
C82   C     C_R   0.976162 0.410304 0.013685 0.016376
C83   C     C_R   0.992955 0.508670 0.470507 0.032544
C84   C     C_R   0.050189 0.480096 0.023929 0.033115
C85   C     C_R   0.062477 0.547011 0.488029 0.018496
C86   C     C_R   0.111854 0.540676 0.006949 0.017125
C87   C     C_R   0.842205 0.432731 0.461834 -0.151110
C88   C     C_R   0.915066 0.353921 0.031431 -0.144024
C89   C     C_R   0.157944 0.592144 0.450839 -0.114050
C90   C     C_R   0.197017 0.615717 0.045080 -0.131132
C91   C     C_R   0.114128 0.584067 0.533623 -0.143397
C92   C     C_R   0.152651 0.595624 0.961758 -0.157154
C93   C     C_R   0.100084 0.572891 0.560278 -0.111301
C94   C     C_R   0.135919 0.589105 0.935108 -0.120706
C95   C     C_R   0.144623 0.588220 0.477531 -0.145745
C96   C     C_R   0.185803 0.607178 0.018205 -0.155726
C97   C     C_R   0.954480 0.482236 0.398422 0.420308
C98   C     C_R   0.011289 0.444390 0.095723 0.415922
C99   C     C_R   0.409491 0.891791 0.408079 0.413124
C100  C     C_R   0.435142 0.864180 0.089716 0.410887
C101  C     C_R   0.470793 0.038946 0.398398 0.409113
C102  C     C_R   0.468251 0.006912 0.096885 0.403320
C103  C     C_R   0.509490 0.950416 0.350644 -0.054014
C104  C     C_R   0.511256 0.943887 0.149409 -0.062919
C105  C     C_R   0.508084 0.921195 0.325064 -0.033120
C106  C     C_R   0.506932 0.922577 0.175907 -0.030618
C107  C     C_R   0.356537 0.867624 0.324069 -0.134813
C108  C     C_R   0.353960 0.842815 0.171711 -0.136780
C109  C     C_R   0.359091 0.898637 0.349162 0.054881
C110  C     C_R   0.358794 0.865693 0.145469 0.060010
C111  C     C_R   0.435950 0.937461 0.362890 0.239189
C112  C     C_R   0.438594 0.913505 0.134034 0.244622
C113  C     C_R   0.441455 0.991427 0.443559 -0.032901
C114  C     C_R   0.458993 0.955766 0.052485 -0.030894
C115  C     C_R   0.408271 0.907903 0.434807 0.027655
C116  C     C_R   0.439936 0.876655 0.062558 0.025616
C117  C     C_R   0.375480 0.842176 0.452914 -0.113555
C118  C     C_R   0.426206 0.811833 0.045350 -0.123213
C119  C     C_R   0.103518 0.557683 0.406414 0.414523
C120  C     C_R   0.146586 0.566951 0.089226 0.429646
C121  C     C_R   0.473350 0.057494 0.425204 0.028079
C122  C     C_R   0.473961 0.021486 0.069851 0.027354
C123  C     C_R   0.428727 0.873956 0.312236 -0.008583
C124  C     C_R   0.426784 0.867095 0.186859 0.004711
C125  C     C_R   0.562618 0.139799 0.685943 0.011631
C126  C     C_R   0.556687 0.125971 0.811665 0.011528
C127  C     C_R   0.409840 0.958679 0.515890 0.018052
C128  C     C_R   0.446170 0.914721 0.980296 0.018382
C129  C     C_R   0.493341 0.110874 0.506818 0.010698
C130  C     C_R   0.495324 0.065195 0.987905 0.016365
C131  C     C_R   0.456428 0.043058 0.524855 0.028059
C132  C     C_R   0.473410 0.996894 0.970536 0.032694
C133  C     C_R   0.367132 0.894117 0.534456 -0.145294
C134  C     C_R   0.420238 0.848059 0.962157 -0.144419
C135  C     C_R   0.376705 0.910921 0.561030 -0.115560
C136  C     C_R   0.425242 0.862437 0.935403 -0.112160
C137  C     C_R   0.428821 0.992777 0.570189 0.024654
C138  C     C_R   0.455851 0.943728 0.925558 0.029046
C139  C     C_R   0.467381 0.059474 0.552163 -0.036209
C140  C     C_R   0.479358 0.011125 0.943106 -0.032377
C141  C     C_R   0.050806 0.585138 0.346615 -0.081268
C142  C     C_R   0.107566 0.600877 0.144060 -0.074608
C143  C     C_R   0.517750 0.142325 0.561423 0.024934
C144  C     C_R   0.509441 0.092965 0.933247 0.028353
C145  C     C_R   0.532697 0.156684 0.588415 0.410165
C146  C     C_R   0.516620 0.106535 0.906196 0.422773
C147  C     C_R   0.444029 0.009248 0.597043 0.416067
C148  C     C_R   0.463641 0.959338 0.898491 0.420812
C149  C     C_R   0.459098 0.099815 0.651034 -0.078671
C150  C     C_R   0.460496 0.086643 0.848204 -0.058009
C151  C     C_R   0.481071 0.117440 0.677336 -0.155919
C152  C     C_R   0.484831 0.120592 0.823278 -0.140604
C153  C     C_R   0.620416 0.140274 0.667933 -0.135343
C154  C     C_R   0.600043 0.091284 0.824708 -0.134423
C155  C     C_R   0.598459 0.123146 0.641613 -0.052694
C156  C     C_R   0.575488 0.057299 0.849636 -0.055737
C157  C     C_R   0.518320 0.104475 0.633000 0.238575
C158  C     C_R   0.507327 0.057348 0.861793 0.243730
C159  C     C_R   0.408305 0.941316 0.488843 0.018774
C160  C     C_R   0.445450 0.901840 0.007715 0.018750
C161  C     C_R   0.443895 0.008878 0.470727 0.032790
C162  C     C_R   0.463539 0.969359 0.025037 0.033183
C163  C     C_R   0.085118 0.601244 0.321731 -0.162272
C164  C     C_R   0.126695 0.618441 0.170396 -0.154385
C165  C     C_R   0.482933 0.093636 0.479523 0.016892
C166  C     C_R   0.486227 0.050419 0.015225 0.016260
C167  C     C_R   0.375007 0.858304 0.479324 -0.143137
C168  C     C_R   0.428484 0.823848 0.018525 -0.151152
C169  C     C_R   0.506664 0.140376 0.434011 -0.112742
C170  C     C_R   0.493030 0.099967 0.059896 -0.115442
C171  C     C_R   0.541287 0.193601 0.516830 -0.154251
C172  C     C_R   0.526796 0.146627 0.977276 -0.145920
C173  C     C_R   0.553242 0.208714 0.543535 -0.125749
C174  C     C_R   0.533388 0.159994 0.950561 -0.112309
C175  C     C_R   0.511585 0.158233 0.460565 -0.145036
C176  C     C_R   0.498753 0.114177 0.033206 -0.145080
C177  C     C_R   0.587769 0.536225 0.395243 0.422671
C178  C     C_R   0.554486 0.572606 0.095490 0.417720
C179  C     C_R   0.438024 0.461123 0.401102 0.422325
C180  C     C_R   0.423389 0.569836 0.088724 0.431266
C181  C     C_R   0.444999 0.464640 0.341645 -0.058254
C182  C     C_R   0.403963 0.499327 0.144905 -0.061759
C183  C     C_R   0.419829 0.483004 0.317948 -0.145106
C184  C     C_R   0.386660 0.501861 0.171277 -0.137295
C185  C     C_R   0.116238 0.486928 0.326262 -0.025508
C186  C     C_R   0.103078 0.476752 0.177407 -0.025181
C187  C     C_R   0.499131 0.631774 0.328084 -0.143194
C188  C     C_R   0.507401 0.642404 0.174577 -0.141577
C189  C     C_R   0.523274 0.613118 0.352085 -0.058069
C190  C     C_R   0.524537 0.639674 0.148205 -0.050007
C191  C     C_R   0.494670 0.529180 0.359303 0.238515
C192  C     C_R   0.471603 0.569066 0.133090 0.244999
C193  C     C_R   0.529226 0.469285 0.437096 -0.032268
C194  C     C_R   0.504286 0.570114 0.051187 -0.031394
C195  C     C_R   0.599696 0.517403 0.421170 0.029689
C196  C     C_R   0.566064 0.572948 0.068342 0.029462
C197  C     C_R   0.680366 0.545615 0.431511 -0.112131
C198  C     C_R   0.637346 0.574595 0.058051 -0.112763
C199  C     C_R   0.447892 0.440070 0.426781 0.030702
C200  C     C_R   0.432777 0.569164 0.061508 0.025461
C201  C     C_R   0.445045 0.566568 0.311147 0.007699
C202  C     C_R   0.436741 0.574486 0.186210 0.011146
C203  C     C_R   0.581370 0.415835 0.682779 0.014086
C204  C     C_R   0.570264 0.442491 0.812069 0.011302
C205  C     C_R   0.631821 0.476176 0.501613 0.011373
C206  C     C_R   0.596946 0.570384 0.986004 0.019194
C207  C     C_R   0.082017 0.472559 0.351508 -0.042853
C208  C     C_R   0.090177 0.462521 0.150340 -0.041500
C209  C     C_R   0.478661 0.383606 0.505321 -0.000730
C210  C     C_R   0.453751 0.546646 0.979466 0.000028
C211  C     C_R   0.559473 0.426029 0.517002 0.021123
C212  C     C_R   0.528541 0.554172 0.969130 0.028352
C213  C     C_R   0.710978 0.517473 0.514386 -0.146774
C214  C     C_R   0.672995 0.584601 0.974773 -0.143685
C215  C     C_R   0.717919 0.512752 0.541377 -0.116934
C216  C     C_R   0.679606 0.576642 0.948165 -0.109501
C217  C     C_R   0.646442 0.466268 0.556795 0.020033
C218  C     C_R   0.610972 0.554879 0.931540 0.032150
C219  C     C_R   0.567273 0.420356 0.544486 -0.053053
C220  C     C_R   0.534999 0.544628 0.941788 -0.040746
C221  C     C_R   0.495484 0.369999 0.559707 0.038788
C222  C     C_R   0.465613 0.523374 0.924841 0.027313
C223  C     C_R   0.502006 0.381425 0.587035 0.417952
C224  C     C_R   0.477030 0.517050 0.897609 0.409194
C225  C     C_R   0.652176 0.464707 0.584287 0.452268
C226  C     C_R   0.616713 0.541226 0.904909 0.424120
C227  C     C_R   0.630781 0.496555 0.642450 -0.065827
C228  C     C_R   0.618698 0.552322 0.845078 -0.054356
Cr1   Cr    Cr6+3 0.456550 0.732290 0.250000 1.002943
Cr2   Cr    Cr6+3 0.275740 0.543450 0.250000 0.985803
Cr3   Cr    Cr6+3 0.267710 0.724260 0.250000 1.009285
Cr4   Cr    Cr6+3 0.543450 0.275740 0.750000 1.019480
Cr5   Cr    Cr6+3 0.724260 0.267710 0.750000 1.021535
Cr6   Cr    Cr6+3 0.732290 0.456550 0.750000 1.024924
H1    H     H_    0.027848 0.624530 0.354621 0.125793
H2    H     H_    0.107088 0.648099 0.131458 0.124141
H3    H     H_    0.222211 0.623660 0.443886 0.164102
H4    H     H_    0.254302 0.668447 0.052635 0.162593
H5    H     H_    0.177810 0.627931 0.528039 0.103195
H6    H     H_    0.209362 0.651298 0.967769 0.107080
H7    H     H_    0.909428 0.562037 0.685166 0.138376
H8    H     H_    0.878742 0.547540 0.821458 0.140985
H9    H     H_    0.153162 0.606626 0.573382 0.165244
H10   H     H_    0.180322 0.638755 0.922488 0.167857
H11   H     H_    0.949128 0.577203 0.639222 0.140417
H12   H     H_    0.941331 0.560275 0.864665 0.144834
H13   H     H_    0.200703 0.616153 0.489398 0.104491
H14   H     H_    0.237040 0.654007 0.006856 0.102493
H15   H     H_    0.296366 0.835765 0.314072 0.139464
H16   H     H_    0.292492 0.802428 0.180037 0.131890
H17   H     H_    0.350084 0.777463 0.446721 0.159209
H18   H     H_    0.413237 0.750965 0.052590 0.165743
H19   H     H_    0.081256 0.423839 0.363709 0.122203
H20   H     H_    0.077233 0.402773 0.142184 0.135173
H21   H     H_    0.435403 0.116990 0.690750 0.126549
H22   H     H_    0.449924 0.146487 0.813723 0.130557
H23   H     H_    0.396886 0.084944 0.644527 0.125853
H24   H     H_    0.408040 0.087358 0.857561 0.127548
H25   H     H_    0.343999 0.858877 0.574447 0.165460
H26   H     H_    0.405130 0.809201 0.922385 0.164812
H27   H     H_    0.324881 0.829600 0.529066 0.105079
H28   H     H_    0.394213 0.783338 0.967970 0.100685
H29   H     H_    0.350862 0.804123 0.491903 0.104602
H30   H     H_    0.418535 0.770940 0.006793 0.107589
H31   H     H_    0.567147 0.981345 0.361872 0.125027
H32   H     H_    0.571743 0.982762 0.140263 0.125270
H33   H     H_    0.530094 0.192281 0.420336 0.164828
H34   H     H_    0.503344 0.151100 0.072779 0.165474
H35   H     H_    0.572805 0.248310 0.504544 0.109794
H36   H     H_    0.549096 0.202342 0.989059 0.110735
H37   H     H_    0.683941 0.158220 0.673892 0.126150
H38   H     H_    0.655396 0.094140 0.816243 0.138375
H39   H     H_    0.803170 0.413805 0.421982 0.166587
H40   H     H_    0.877656 0.319955 0.070852 0.164603
H41   H     H_    0.590955 0.273057 0.550155 0.154335
H42   H     H_    0.558041 0.223743 0.943499 0.169359
H43   H     H_    0.644320 0.126154 0.627780 0.133347
H44   H     H_    0.612475 0.035525 0.860124 0.134063
H45   H     H_    0.537348 0.223595 0.465574 0.110047
H46   H     H_    0.511370 0.175790 0.027353 0.111442
H47   H     H_    0.519214 0.696701 0.323388 0.128947
H48   H     H_    0.547064 0.699416 0.185467 0.130141
H49   H     H_    0.561006 0.663687 0.365553 0.140428
H50   H     H_    0.576871 0.693916 0.139245 0.136368
H51   H     H_    0.735749 0.581046 0.419591 0.166011
H52   H     H_    0.685405 0.575828 0.070759 0.164787
H53   H     H_    0.669028 0.549689 0.681047 0.123484
H54   H     H_    0.680162 0.566569 0.808423 0.127916
H55   H     H_    0.666863 0.556818 0.632892 0.145572
H56   H     H_    0.664304 0.615110 0.851520 0.142224
H57   H     H_    0.779852 0.547330 0.550222 0.163195
H58   H     H_    0.739159 0.586946 0.940652 0.165978
H59   H     H_    0.768902 0.556637 0.504216 0.115414
H60   H     H_    0.729437 0.603304 0.986014 0.111603
H61   H     H_    0.826809 0.296357 0.680965 0.127699
H62   H     H_    0.881458 0.315797 0.808755 0.129741
H63   H     H_    0.755586 0.553968 0.463771 0.112635
H64   H     H_    0.703138 0.572251 0.025106 0.111572
H65   H     H_    0.378752 0.431474 0.305211 0.127335
H66   H     H_    0.331616 0.448653 0.179572 0.130256
H67   H     H_    0.422678 0.399622 0.346829 0.136887
H68   H     H_    0.362952 0.444302 0.133388 0.127070
H69   H     H_    0.314546 0.369367 0.435167 0.164219
H70   H     H_    0.317975 0.569357 0.051881 0.168500
H71   H     H_    0.351086 0.281699 0.511305 0.107001
H72   H     H_    0.325321 0.509488 0.970495 0.108535
H73   H     H_    0.497798 0.281917 0.676771 0.139023
H74   H     H_    0.457618 0.326128 0.822411 0.134784
H75   H     H_    0.502192 0.287880 0.629766 0.165543
H76   H     H_    0.444132 0.374300 0.865533 0.132524
H77   H     H_    0.330366 0.338619 0.479051 0.110604
H78   H     H_    0.332402 0.566289 0.005934 0.104258
H79   H     H_    0.867923 0.313045 0.634914 0.129398
H80   H     H_    0.945852 0.330490 0.851900 0.133310
H81   H     H_    0.739599 0.343510 0.551638 0.166797
H82   H     H_    0.825189 0.267415 0.940739 0.167621
H83   H     H_    0.759512 0.362515 0.505970 0.110589
H84   H     H_    0.850319 0.275631 0.986155 0.111167
H85   H     H_    0.777177 0.403329 0.467554 0.108902
H86   H     H_    0.855754 0.301532 0.025376 0.110894
H87   H     H_    0.086240 0.652753 0.311011 0.135947
H88   H     H_    0.143331 0.680623 0.177304 0.124784
N1    N     N_R   0.036035 0.520347 0.389409 -0.389922
N2    N     N_R   0.083972 0.511245 0.105732 -0.384810
N3    N     N_R   0.925134 0.454289 0.606164 -0.388866
N4    N     N_R   0.971717 0.447302 0.888301 -0.387345
N5    N     N_R   0.438808 0.956780 0.390255 -0.393014
N6    N     N_R   0.447064 0.928434 0.106367 -0.392248
N7    N     N_R   0.497183 0.090100 0.605711 -0.391352
N8    N     N_R   0.494042 0.040092 0.889258 -0.388430
N9    N     N_R   0.507493 0.508472 0.385593 -0.383510
N10   N     N_R   0.483362 0.570255 0.105292 -0.388262
N11   N     N_R   0.579922 0.424401 0.599185 -0.365088
N12   N     N_R   0.549859 0.521607 0.888386 -0.378931
O1    O     O_R   0.475290 0.813700 0.278840 -0.529186
O2    O     O_R   0.475290 0.813700 0.221160 -0.520124
O3    O     O_2   0.175314 0.593046 0.397926 -0.505630
O4    O     O_2   0.211861 0.624274 0.098319 -0.482664
O5    O     O_2   0.064323 0.540762 0.612207 -0.513969
O6    O     O_2   0.093144 0.569627 0.883126 -0.514177
O7    O     O_2   0.384940 0.819909 0.400586 -0.510352
O8    O     O_2   0.419992 0.796126 0.098631 -0.477651
O9    O     O_2   0.411409 0.951516 0.612734 -0.510611
O10   O     O_2   0.443596 0.901371 0.883132 -0.507056
O11   O     O_2   0.496910 0.095628 0.382306 -0.519789
O12   O     O_2   0.481218 0.063628 0.112046 -0.527487
O13   O     O_2   0.577797 0.228200 0.596560 -0.504949
O14   O     O_2   0.544094 0.177775 0.897628 -0.504443
O15   O     O_2   0.648652 0.577049 0.381262 -0.517295
O16   O     O_2   0.607174 0.573552 0.110441 -0.519718
O17   O     O_2   0.721183 0.499482 0.594911 -0.504817
O18   O     O_2   0.680785 0.545050 0.896447 -0.520342
O19   O     O_2   0.367377 0.438249 0.392599 -0.519597
O20   O     O_2   0.362009 0.570328 0.097743 -0.469305
O21   O     O_2   0.438248 0.357086 0.599978 -0.540251
O22   O     O_2   0.423101 0.508728 0.881908 -0.538252
O23   O     O_R   0.448450 0.657720 0.276690 -0.489153
O24   O     O_R   0.448450 0.657720 0.223310 -0.494029
O25   O     O_R   0.524710 0.338410 0.721160 -0.512211
O26   O     O_R   0.524710 0.338410 0.778840 -0.512105
O27   O     O_R   0.551550 0.209270 0.723310 -0.502836
O28   O     O_R   0.551550 0.209270 0.776690 -0.496421
O29   O     O_R   0.661590 0.186300 0.721160 -0.512409
O30   O     O_R   0.661590 0.186300 0.778840 -0.511111
O31   O     O_R   0.790730 0.342280 0.723310 -0.498893
O32   O     O_R   0.790730 0.342280 0.776690 -0.493592
O33   O     O_R   0.813700 0.475290 0.721160 -0.511959
O34   O     O_R   0.813700 0.475290 0.778840 -0.511986
O35   O     O_R   0.657720 0.448450 0.723310 -0.491074
O36   O     O_R   0.657720 0.448450 0.776690 -0.493564
O37   O     O_3   0.666667 0.333333 0.750000 -0.231087
O38   O     O_R   0.338410 0.524710 0.278840 -0.533114
O39   O     O_R   0.338410 0.524710 0.221160 -0.516879
O40   O     O_R   0.209270 0.551550 0.276690 -0.503587
O41   O     O_R   0.209270 0.551550 0.223310 -0.500841
O42   O     O_R   0.186300 0.661590 0.278840 -0.518156
O43   O     O_R   0.186300 0.661590 0.221160 -0.516851
O44   O     O_R   0.342280 0.790730 0.276690 -0.495245
O45   O     O_R   0.342280 0.790730 0.223310 -0.498300
O46   O     O_3   0.333333 0.666667 0.250000 -0.214601
O47   O     O_2   0.895738 0.451103 0.382939 -0.510216
O48   O     O_2   0.955936 0.396179 0.110485 -0.532407
O49   O     O_2   0.786925 0.368965 0.597754 -0.465512
O50   O     O_2   0.853218 0.323922 0.895872 -0.508841
C229  C     C_3   0.146626 0.428652 0.316558 -0.235517
C230  C     C_3   0.089553 0.370942 0.294662 -0.288359
C231  C     C_3   0.126383 0.320469 0.282535 -0.445894
H89   H     H_    0.188001 0.363431 0.273393 0.174950
H90   H     H_    0.134976 0.281796 0.297637 0.152301
H91   H     H_    0.082955 0.277948 0.267239 0.128168
H92   H     H_    0.026635 0.326632 0.302839 0.156870
H93   H     H_    0.080426 0.407768 0.279051 0.171637
H94   H     H_    0.213257 0.465376 0.310549 0.200876
H95   H     H_    0.146316 0.387654 0.332647 0.134699
C232  C     C_3   0.086202 0.402878 0.194884 -0.255478
C233  C     C_3   0.995465 0.329796 0.191765 -0.305249
C234  C     C_3   0.976174 0.259867 0.211439 -0.459919
H96   H     H_    0.020353 0.235505 0.208921 0.153524
H97   H     H_    0.981655 0.283745 0.231682 0.146207
H98   H     H_    0.910933 0.207368 0.208345 0.146890
H99   H     H_    0.950648 0.353207 0.194815 0.180610
H100  H     H_    0.985352 0.302705 0.171819 0.176314
H101  H     H_    0.131272 0.381088 0.190025 0.145201
H102  H     H_    0.094092 0.420464 0.215768 0.167949
C235  C     C_3   0.279230 0.889910 0.360725 -0.265928
C236  C     C_3   0.213758 0.798057 0.365929 -0.409921
H103  H     H_    0.195030 0.761527 0.347483 0.149077
H104  H     H_    0.238804 0.769042 0.379689 0.236489
H105  H     H_    0.156845 0.794614 0.374668 0.132030
H106  H     H_    0.291954 0.925642 0.379251 0.165249
H107  H     H_    0.252279 0.917181 0.346920 0.135066
C237  C     C_3   0.278303 0.836499 0.130010 -0.251379
C238  C     C_3   0.259501 0.907893 0.125775 -0.435464
H108  H     H_    0.256891 0.935396 0.144811 0.159569
H109  H     H_    0.308073 0.957834 0.113370 0.190813
H110  H     H_    0.197665 0.883085 0.115816 0.137350
H111  H     H_    0.281301 0.809600 0.110945 0.202954
H112  H     H_    0.224292 0.785567 0.140610 0.128484
C239  C     C_3   0.589420 0.939110 0.311624 -0.243891
C240  C     C_3   0.671266 0.008344 0.324126 -0.316498
C241  C     C_3   0.747110 0.029678 0.306947 -0.451024
H113  H     H_    0.752855 0.972851 0.303711 0.155585
H114  H     H_    0.740722 0.054566 0.287807 0.148106
H115  H     H_    0.805357 0.078458 0.316685 0.152631
H116  H     H_    0.667164 0.066317 0.326948 0.181214
H117  H     H_    0.681604 0.986624 0.343340 0.163685
H118  H     H_    0.592493 0.880101 0.311020 0.170251
H119  H     H_    0.587285 0.959376 0.291288 0.165816
C242  C     C_3   0.588663 0.959823 0.191383 -0.242315
C243  C     C_3   0.590434 0.017153 0.213496 -0.280199
C244  C     C_3   0.671448 0.051721 0.229492 -0.454562
H120  H     H_    0.676454 0.999336 0.238608 0.151399
H121  H     H_    0.727047 0.089041 0.216899 0.151287
H122  H     H_    0.671104 0.093142 0.245219 0.144103
H123  H     H_    0.585863 0.070633 0.205031 0.171030
H124  H     H_    0.536389 0.982292 0.226829 0.170613
H125  H     H_    0.599464 0.909324 0.198984 0.175231
H126  H     H_    0.643119 0.998280 0.178441 0.129361
C245  C     C_3   0.349132 0.235461 0.560532 -0.229239
C246  C     C_3   0.321415 0.153465 0.545168 -0.326003
C247  C     C_3   0.272896 0.075746 0.562286 -0.441738
H127  H     H_    0.313444 0.075945 0.578520 0.160605
H128  H     H_    0.216164 0.074215 0.570456 0.162471
H129  H     H_    0.252881 0.018162 0.550409 0.158125
H130  H     H_    0.280300 0.149090 0.528535 0.157359
H131  H     H_    0.377192 0.152818 0.537216 0.187790
H132  H     H_    0.370196 0.226341 0.579958 0.199385
H133  H     H_    0.294239 0.244779 0.563270 0.162432
C248  C     C_3   0.306463 0.469054 0.919324 -0.223861
C249  C     C_3   0.222712 0.433473 0.934143 -0.333579
C250  C     C_3   0.147694 0.387075 0.915685 -0.435181
H134  H     H_    0.148545 0.430427 0.900367 0.180453
H135  H     H_    0.149203 0.333348 0.906255 0.157804
H136  H     H_    0.088339 0.362107 0.926868 0.155469
H137  H     H_    0.219101 0.388450 0.949350 0.169776
H138  H     H_    0.217987 0.485499 0.943537 0.170634
H139  H     H_    0.310500 0.517728 0.905501 0.201599
H140  H     H_    0.302817 0.415505 0.908078 0.187304

loop_
_geom_bond_atom_site_label_1
_geom_bond_atom_site_label_2
_ccdc_geom_bond_type
C194  C196  A    
C63   C65   A    
C33   C45   S    
C185  C207  A    
C230  H92   S    
C2    C202  S    
C39   C87   A    
Cr6   O37   S    
C231  H91   S    
C245  H133  S    
C97   N1    Am   
C101  N5    Am   
C170  C176  A    
C171  C173  A    
C208  H20   S    
C180  O20   D    
C240  C241  S    
C18   C210  A    
C54   O43   A    
C84   C86   A    
C234  H97   S    
C4    C142  A    
C57   C59   A    
C9    H75   S    
C205  C211  A    
C58   C60   A    
C105  C123  A    
C60   C62   A    
C61   C63   A    
C7    C203  A    
C173  H41   S    
C112  N6    S    
C174  H42   S    
Cr2   O41   S    
C125  C153  A    
C122  C170  A    
C136  H26   S    
C50   C52   A    
C159  C161  A    
C239  H118  S    
C46   C72   A    
C206  C214  A    
C207  H19   S    
C242  H125  S    
C238  H109  S    
Cr5   O29   S    
C153  H37   S    
C182  C192  A    
C49   C91   A    
C154  H38   S    
C55   H83   S    
C198  H52   S    
C4    C208  A    
C164  H88   S    
C23   C27   A    
C181  C183  A    
C158  N8    S    
C188  H48   S    
C110  C237  S    
C90   H4    S    
C183  C201  A    
C127  C133  A    
C8    C204  A    
C25   C41   A    
C152  H22   S    
C26   C38   A    
C247  H129  S    
C212  C220  A    
C193  C199  A    
C21   C29   A    
C225  O17   D    
C108  H16   S    
C21   H69   S    
C64   C66   A    
C22   H70   S    
C235  H106  S    
C59   C67   A    
C249  H137  S    
C214  H60   S    
C229  H95   S    
C92   C94   A    
C71   H61   S    
C72   H62   S    
C20   C198  A    
C138  C140  A    
C126  C154  A    
C68   N4    Am   
C144  C174  A    
C82   C84   A    
Cr6   O33   S    
C14   C206  A    
C236  H104  S    
C143  C173  A    
Cr6   O35   S    
C231  H89   S    
C99   N5    Am   
C135  C137  A    
C187  C201  A    
C177  C195  A    
C226  O18   D    
C186  C232  S    
C105  C239  S    
C1    O38   A    
C178  N10   Am   
C186  C208  A    
C3    C207  A    
C40   C88   A    
C156  C158  A    
C64   C94   A    
C235  C236  S    
C99   C115  A    
C182  H68   S    
C120  N2    Am   
Cr2   O39   S    
C188  C202  A    
C116  C118  A    
C47   C81   A    
C127  C131  A    
C12   C228  A    
C113  C161  A    
C74   H8    S    
C206  C212  A    
C48   C52   A    
C177  O15   D    
C28   C222  A    
C106  C124  A    
C133  C135  A    
C73   C77   A    
C246  H130  S    
C218  C226  A    
C161  C165  A    
C67   N3    Am   
C41   C89   A    
C241  H113  S    
C1    O23   A    
C45   C71   A    
C239  C240  S    
C3    C141  A    
C48   C56   A    
C38   C98   A    
C28   C248  S    
C187  H47   S    
C244  H121  S    
C242  C243  S    
C133  H27   S    
C232  H101  S    
C191  N9    S    
C224  O22   D    
C237  C238  S    
C216  C218  A    
C149  C151  A    
C120  O4    D    
C214  C216  A    
C33   O31   A    
C43   C185  A    
C248  H139  S    
C188  C190  A    
C32   C126  S    
C189  C191  A    
C179  O19   D    
Cr1   O1    S    
C95   H13   S    
C76   O45   A    
C139  C143  A    
C3    N1    S    
C159  C167  A    
C62   C64   A    
C34   C46   S    
Cr3   O42   S    
C145  O13   D    
C36   O26   A    
C250  H136  S    
C103  H31   S    
C237  H112  S    
C240  H116  S    
C21   C199  A    
C65   N3    Am   
C44   C164  A    
C81   C83   A    
C172  C174  A    
C10   H76   S    
C59   C61   A    
C70   C72   A    
C163  H87   S    
C181  H67   S    
C76   C124  S    
C69   H79   S    
C98   O48   D    
C172  H36   S    
C104  C112  A    
Cr4   O25   S    
C49   C51   A    
C216  H58   S    
C178  C196  A    
C5    C227  A    
C42   C90   A    
C160  C162  A    
C223  N11   Am   
C145  N7    Am   
C177  N9    Am   
C156  H44   S    
C180  C200  A    
C128  C134  A    
C218  C220  A    
C244  H120  S    
C141  H1    S    
C103  C105  A    
C16   C18   A    
C167  H29   S    
C222  C224  A    
C168  H30   S    
C149  H23   S    
Cr2   O46   S    
Cr3   O46   S    
C8    C10   A    
C241  H115  S    
C119  N1    Am   
C69   C79   A    
Cr1   O46   S    
C31   C125  S    
C58   H82   S    
C215  H57   S    
C26   C42   A    
C25   C83   A    
C92   H6    S    
Cr5   O31   S    
C22   C30   A    
C227  H55   S    
C230  H93   S    
C24   C28   A    
C231  H90   S    
C12   N12   S    
C5    C203  A    
C114  C116  A    
C90   C96   A    
C33   O33   A    
Cr4   O37   S    
C211  C219  A    
C68   O50   D    
C210  C212  A    
C80   N4    S    
C213  C215  A    
C148  N8    Am   
C155  H43   S    
C52   C62   A    
C234  H96   S    
C184  H66   S    
C236  H103  S    
C85   C95   A    
C42   C120  A    
C149  C157  A    
C82   C88   A    
C185  C229  S    
C78   H12   S    
C2    O39   A    
C56   C58   A    
C14   C16   A    
C110  C112  A    
C131  C139  A    
C250  H134  S    
C44   C54   S    
C229  H94   S    
C11   C227  A    
C248  C249  S    
C88   H86   S    
C247  H128  S    
C180  N10   Am   
C19   C197  A    
C243  H123  S    
C217  C225  A    
C195  C197  A    
C238  H108  S    
C243  H124  S    
C155  C157  A    
C17   C29   A    
C109  C235  S    
C100  C116  A    
C107  C123  A    
C146  O14   D    
C104  C106  A    
C160  C168  A    
C137  C139  A    
C70   H80   S    
C148  O10   D    
C22   C200  A    
C175  H45   S    
C17   C209  A    
C176  H46   S    
C142  C164  A    
C114  C162  A    
C101  O11   D    
C246  C247  S    
C103  C111  A    
C67   O49   D    
C151  H21   S    
C99   O7    D    
C162  C166  A    
Cr3   O44   S    
C43   C53   S    
C249  H138  S    
C130  C172  A    
C115  C117  A    
C6    C228  A    
C26   C84   A    
C87   H85   S    
Cr1   O24   S    
C79   N3    S    
C153  C155  A    
C154  C156  A    
C39   H39   S    
C77   C79   A    
C205  C213  A    
Cr6   O34   S    
C107  C109  A    
C100  O8    D    
C194  C200  A    
Cr6   O36   S    
C183  H65   S    
C228  H56   S    
C35   O35   A    
C27   C245  S    
C169  H33   S    
C157  N7    S    
C13   C19   A    
C66   O6    D    
C89   H3    S    
C233  C234  S    
C196  C198  A    
C32   O30   A    
C234  H98   S    
C24   C210  A    
C47   C51   A    
C75   O1    A    
C101  C121  A    
C245  H132  S    
C5    H53   S    
C89   C95   A    
C6    H54   S    
C245  C246  S    
C6    C204  A    
C14   C20   A    
C91   C93   A    
C34   O34   A    
C130  C166  A    
Cr2   O40   S    
C36   O36   A    
C169  C175  A    
C41   C119  A    
C239  H119  S    
C81   C87   A    
C86   C96   A    
C144  C146  A    
C83   C85   A    
C242  H126  S    
C238  H110  S    
C93   H9    S    
Cr5   O30   S    
C13   C205  A    
C57   H81   S    
C165  C175  A    
C102  O12   D    
C233  H100  S    
C229  C230  S    
C15   C17   A    
C190  C192  A    
C11   N11   S    
C135  H25   S    
C137  C147  A    
C226  N12   Am   
C140  C144  A    
C233  H99   S    
C232  C233  S    
C132  C140  A    
C1    C201  S    
C8    H74   S    
C129  C165  A    
C109  C111  A    
C230  C231  S    
C235  H107  S    
C37   C39   A    
C38   C40   A    
C181  C191  A    
C179  C199  A    
C117  C167  A    
C189  H49   S    
C118  C168  A    
C48   C82   A    
C108  C124  A    
C78   C80   A    
C24   H72   S    
C119  O3    D    
C15   C193  A    
C19   H63   S    
C73   H7    S    
C60   C68   A    
C74   C78   A    
C53   O40   A    
C32   O28   A    
C29   H77   S    
C225  N11   Am   
C63   C93   A    
C102  C122  A    
C30   H78   S    
C96   H14   S    
C44   C186  A    
C250  H135  S    
C43   C163  A    
C121  C169  A    
Cr5   O37   S    
C240  H117  S    
C51   C61   A    
C220  C222  A    
C117  H17   S    
C75   C123  S    
C104  H32   S    
C215  C217  A    
C34   O32   A    
C56   H84   S    
Cr4   O26   S    
Cr2   O38   S    
C45   C73   A    
C69   C71   A    
C94   H10   S    
C243  C244  S    
C25   C37   A    
C31   O29   A    
C76   O2    A    
C108  C110  A    
C193  C195  A    
C236  H105  S    
C20   H64   S    
Cr5   O32   S    
C18   C30   A    
C102  N6    Am   
C125  C151  A    
C77   H11   S    
C37   C97   A    
C213  H59   S    
C142  H2    S    
C249  C250  S    
C98   N2    Am   
C241  H114  S    
C66   N4    Am   
C126  C152  A    
C128  C132  A    
C106  C242  S    
C179  N9    Am   
C244  H122  S    
C147  O9    D    
C223  O21   D    
C232  H102  S    
C184  C202  A    
C107  H15   S    
C49   C85   A    
C16   C194  A    
C136  C138  A    
C138  C148  A    
C134  C136  A    
C23   C209  A    
C178  O16   D    
C248  H140  S    
Cr3   O43   S    
C190  H50   S    
Cr1   O2    S    
C219  C221  A    
C75   O44   A    
C224  N12   Am   
C40   H40   S    
C150  C158  A    
C53   O42   A    
C113  C121  A    
C146  N8    Am   
C70   C80   A    
C9    C11   A    
C46   C74   A    
C10   C12   A    
C97   O47   D    
C50   C92   A    
Cr4   O27   S    
C237  H111  S    
C141  C163  A    
C35   O25   A    
C13   C15   A    
C150  C152  A    
C171  H35   S    
C127  C159  A    
C147  N7    Am   
C128  C160  A    
C47   C55   A    
C143  C145  A    
C182  C184  A    
C129  C171  A    
C197  H51   S    
C217  C219  A    
C166  C176  A    
C130  C132  A    
C55   C57   A    
C192  N10   S    
C27   C221  A    
Cr3   O45   S    
C221  C223  A    
C170  H34   S    
C118  H18   S    
C54   O41   A    
C150  H24   S    
C31   O27   A    
C35   C203  S    
C247  H127  S    
C113  C115  A    
C100  N6    Am   
Cr4   O28   S    
C209  C211  A    
C246  H131  S    
C187  C189  A    
C23   H71   S    
C50   C86   A    
C7    H73   S    
C114  C122  A    
C7    C9    A    
C134  H28   S    
C91   H5    S    
C4    N2    S    
C65   O5    D    
C2    O24   A    
Cr1   O23   S    
C36   C204  S    
C111  N5    S    
C129  C131  A    
