data_mof_unit_918.cif
_audit_creation_date              2012-12-10T18:46:48-0500
_audit_creation_method            fapswitch 2.2
_symmetry_space_group_name_H-M    P1
_symmetry_Int_Tables_number       1
_space_group_crystal_system       triclinic
_cell_length_a                    18.192069
_cell_length_b                    18.126393
_cell_length_c                    51.338776
_cell_angle_alpha                 89.970738
_cell_angle_beta                  89.946584
_cell_angle_gamma                 90.276994
_cell_volume                      16929.092381

loop_
_atom_site_label
_atom_site_type_symbol
_atom_type_description
_atom_site_fract_x
_atom_site_fract_y
_atom_site_fract_z
_atom_type_partial_charge
C1    C     C_R   0.999982 0.499996 0.820626 1.007414
C2    C     C_R   0.999971 0.500002 0.179338 0.746212
C3    C     C_R   0.499991 0.000172 0.820751 0.946802
C4    C     C_R   0.499982 0.999946 0.179281 0.975190
C5    C     C_R   0.500006 0.999987 0.320617 1.008229
C6    C     C_R   0.500043 0.999987 0.679348 0.747319
C7    C     C_R   0.999997 0.500274 0.320749 0.946882
C8    C     C_R   0.999951 0.500146 0.679278 0.974935
C9    C     C_R   0.500543 0.136096 0.986554 -0.080236
C10   C     C_R   0.498059 0.864508 0.013707 -0.081614
C11   C     C_R   0.941829 0.375131 0.986093 -0.070074
C12   C     C_R   0.026979 0.633194 0.013633 -0.076335
C13   C     C_R   0.503082 0.864706 0.986212 -0.081186
C14   C     C_R   0.504314 0.135629 0.014076 -0.081311
C15   C     C_R   0.028146 0.632806 0.986105 -0.073397
C16   C     C_R   0.941889 0.374866 0.013617 -0.076141
C17   C     C_R   0.995231 0.638973 0.486475 -0.080829
C18   C     C_R   0.997417 0.367549 0.513777 -0.081333
C19   C     C_R   0.452411 0.871689 0.486093 -0.071391
C20   C     C_R   0.532914 0.131347 0.513615 -0.076685
C21   C     C_R   0.002567 0.367697 0.486287 -0.080837
C22   C     C_R   0.998801 0.638677 0.513998 -0.080777
C23   C     C_R   0.533743 0.131038 0.486090 -0.073036
C24   C     C_R   0.452869 0.871329 0.513616 -0.076612
C25   C     C_R   0.055056 0.464867 0.609122 0.051766
C26   C     C_R   0.057296 0.539276 0.390511 0.057916
C27   C     C_R   0.562599 0.982193 0.609220 0.111810
C28   C     C_R   0.430721 0.012958 0.389943 0.047705
C29   C     C_R   0.941589 0.538345 0.609698 0.052259
C30   C     C_R   0.942508 0.466931 0.390861 0.058079
C31   C     C_R   0.431624 0.017478 0.610018 0.112672
C32   C     C_R   0.563776 0.987285 0.390587 0.048269
C33   C     C_R   0.555728 0.961560 0.109408 0.051568
C34   C     C_R   0.558404 0.037016 0.890500 0.057874
C35   C     C_R   0.058443 0.481976 0.108736 0.112282
C36   C     C_R   0.927947 0.514989 0.889561 0.047449
C37   C     C_R   0.442833 0.035977 0.109422 0.052753
C38   C     C_R   0.443279 0.965228 0.890880 0.058286
C39   C     C_R   0.928261 0.519775 0.110492 0.112049
C40   C     C_R   0.060363 0.486531 0.890998 0.048575
C41   C     C_R   0.050544 0.457338 0.636470 -0.071411
C42   C     C_R   0.052168 0.545188 0.363139 -0.120249
C43   C     C_R   0.564925 0.986945 0.636825 -0.062159
C44   C     C_R   0.431876 0.013203 0.362374 -0.088103
C45   C     C_R   0.947300 0.544437 0.637045 -0.069481
C46   C     C_R   0.947864 0.458846 0.363583 -0.123291
C47   C     C_R   0.431743 0.012062 0.637589 -0.059453
C48   C     C_R   0.564837 0.986810 0.363016 -0.091982
C49   C     C_R   0.550816 0.955221 0.136783 -0.070872
C50   C     C_R   0.552470 0.044143 0.863191 -0.120634
C51   C     C_R   0.062335 0.486155 0.136336 -0.063407
C52   C     C_R   0.930331 0.514741 0.862001 -0.086975
C53   C     C_R   0.447928 0.042794 0.136764 -0.070973
C54   C     C_R   0.448094 0.957929 0.863555 -0.123401
C55   C     C_R   0.929696 0.513664 0.138046 -0.058138
C56   C     C_R   0.062677 0.485762 0.863428 -0.094906
C57   C     C_R   0.999490 0.500810 0.650522 -0.105315
C58   C     C_R   0.000031 0.501435 0.349560 -0.116342
C59   C     C_R   0.498968 0.999859 0.650710 -0.198607
C60   C     C_R   0.498914 0.999982 0.349153 -0.107151
C61   C     C_R   0.499744 0.999479 0.150530 -0.105452
C62   C     C_R   0.500093 0.000833 0.849567 -0.116249
C63   C     C_R   0.997386 0.500002 0.150697 -0.199271
C64   C     C_R   0.997676 0.500073 0.849169 -0.107596
C65   C     C_R   0.998038 0.502013 0.595772 0.266342
C66   C     C_R   0.999934 0.503495 0.404335 0.290593
C67   C     C_R   0.496538 0.000122 0.596091 0.223402
C68   C     C_R   0.496712 0.000237 0.403804 0.291609
C69   C     C_R   0.499351 0.998878 0.095782 0.266948
C70   C     C_R   0.501159 0.001120 0.904348 0.290036
C71   C     C_R   0.992064 0.501444 0.096089 0.223077
C72   C     C_R   0.993015 0.501110 0.903819 0.291946
C73   C     C_R   0.141903 0.358796 0.750421 0.837939
C74   C     C_R   0.858121 0.641351 0.249594 0.839978
C75   C     C_R   0.640009 0.143026 0.751100 0.836832
C76   C     C_R   0.360501 0.856717 0.248742 0.833299
C77   C     C_R   0.858154 0.641205 0.750382 0.834055
C78   C     C_R   0.141685 0.358507 0.249695 0.841671
C79   C     C_R   0.359961 0.856972 0.751095 0.835966
C80   C     C_R   0.639434 0.143358 0.248683 0.837108
C81   C     C_R   0.642071 0.858981 0.250498 0.838122
C82   C     C_R   0.358228 0.141437 0.749659 0.842619
C83   C     C_R   0.140111 0.642937 0.251054 0.836694
C84   C     C_R   0.860495 0.356717 0.748746 0.833053
C85   C     C_R   0.358146 0.141206 0.250405 0.833233
C86   C     C_R   0.641837 0.858663 0.749633 0.838951
C87   C     C_R   0.859911 0.357007 0.251076 0.836261
C88   C     C_R   0.139353 0.643439 0.748656 0.836140
C89   C     C_3   0.185077 0.782426 0.756177 0.039017
C90   C     C_3   0.813282 0.218620 0.243235 0.035693
C91   C     C_3   0.227389 0.193596 0.765064 0.087323
C92   C     C_3   0.773692 0.807980 0.235553 0.067833
C93   C     C_3   0.815903 0.216035 0.752853 0.027819
C94   C     C_3   0.185573 0.783244 0.247076 0.027321
C95   C     C_3   0.774645 0.808068 0.763770 0.093410
C96   C     C_3   0.225935 0.191664 0.235978 0.064960
C97   C     C_3   0.685097 0.282207 0.256146 0.039046
C98   C     C_3   0.313120 0.718644 0.743177 0.036364
C99   C     C_3   0.726734 0.693121 0.264567 0.086400
C100  C     C_3   0.272889 0.307143 0.735133 0.066624
C101  C     C_3   0.316127 0.715876 0.252471 0.026230
C102  C     C_3   0.685516 0.283343 0.746860 0.028594
C103  C     C_3   0.273719 0.307419 0.264262 0.085730
C104  C     C_3   0.725439 0.691408 0.736208 0.066391
C105  C     C_3   0.234684 0.805774 0.733055 0.024376
C106  C     C_3   0.763798 0.195377 0.266390 0.002647
C107  C     C_3   0.187331 0.222437 0.740526 -0.011984
C108  C     C_3   0.812782 0.777702 0.260112 -0.024339
C109  C     C_3   0.760002 0.199843 0.730804 0.032001
C110  C     C_3   0.241894 0.798795 0.269025 0.005591
C111  C     C_3   0.811615 0.776189 0.739102 -0.010551
C112  C     C_3   0.187961 0.222626 0.260637 -0.024144
C113  C     C_3   0.734679 0.305530 0.233020 0.025804
C114  C     C_3   0.263668 0.695400 0.766341 0.002584
C115  C     C_3   0.687744 0.723355 0.240030 -0.013571
C116  C     C_3   0.312929 0.278188 0.759698 -0.023892
C117  C     C_3   0.259697 0.700242 0.230525 0.033510
C118  C     C_3   0.741380 0.299457 0.768907 0.006683
C119  C     C_3   0.311800 0.276701 0.239579 -0.011813
C120  C     C_3   0.688439 0.723341 0.760908 -0.023345
C121  C     C_3   0.302409 0.800221 0.750958 -0.101651
C122  C     C_3   0.696082 0.200710 0.248497 -0.098779
C123  C     C_3   0.199279 0.302270 0.750190 -0.097801
C124  C     C_3   0.800964 0.698346 0.249847 -0.092022
C125  C     C_3   0.697378 0.199922 0.751093 -0.098273
C126  C     C_3   0.303960 0.799309 0.248580 -0.098284
C127  C     C_3   0.800739 0.697627 0.750053 -0.102552
C128  C     C_3   0.198912 0.301651 0.249995 -0.093850
C129  C     C_3   0.802380 0.300215 0.250956 -0.100967
C130  C     C_3   0.195902 0.700915 0.748476 -0.098890
C131  C     C_3   0.699568 0.802576 0.250265 -0.097279
C132  C     C_3   0.301024 0.198336 0.749962 -0.092682
C133  C     C_3   0.197574 0.699728 0.251006 -0.098638
C134  C     C_3   0.803881 0.299373 0.748630 -0.098820
C135  C     C_3   0.300743 0.197672 0.250170 -0.100949
C136  C     C_3   0.699262 0.802011 0.749897 -0.096176
C137  C     C_3   0.252857 0.776899 0.774051 -0.013723
C138  C     C_3   0.745389 0.223910 0.225357 -0.024931
C139  C     C_3   0.239105 0.273541 0.774603 -0.022761
C140  C     C_3   0.762027 0.728620 0.225424 -0.012170
C141  C     C_3   0.753243 0.216130 0.773100 0.000282
C142  C     C_3   0.247873 0.783762 0.226650 -0.011432
C143  C     C_3   0.763959 0.729289 0.774598 -0.021500
C144  C     C_3   0.236885 0.270808 0.225443 -0.008979
C145  C     C_3   0.752836 0.276876 0.274050 -0.013381
C146  C     C_3   0.245175 0.724165 0.725335 -0.025695
C147  C     C_3   0.738413 0.772521 0.274670 -0.022330
C148  C     C_3   0.261069 0.227238 0.725552 -0.013107
C149  C     C_3   0.253937 0.715361 0.272902 0.000386
C150  C     C_3   0.748254 0.283277 0.726607 -0.014055
C151  C     C_3   0.262952 0.228238 0.274672 -0.020426
C152  C     C_3   0.736197 0.770173 0.725343 -0.018091
C153  C     C_R   0.515706 0.936816 0.945250 0.478069
C154  C     C_R   0.516365 0.063045 0.054917 0.512716
C155  C     C_R   0.003615 0.566514 0.944616 0.478645
C156  C     C_R   0.965267 0.441110 0.055267 0.485063
C157  C     C_R   0.488253 0.064994 0.945403 0.477024
C158  C     C_R   0.483372 0.936030 0.054633 0.511975
C159  C     C_R   0.975240 0.438295 0.944832 0.475377
C160  C     C_R   0.011224 0.564361 0.055190 0.481126
C161  C     C_R   0.014734 0.439761 0.445308 0.478016
C162  C     C_R   0.012829 0.566535 0.554844 0.512905
C163  C     C_R   0.507893 0.065133 0.444663 0.477928
C164  C     C_R   0.472968 0.938651 0.555246 0.483843
C165  C     C_R   0.985412 0.567526 0.445300 0.477079
C166  C     C_R   0.981881 0.439024 0.554673 0.512790
C167  C     C_R   0.482218 0.936356 0.444762 0.476123
C168  C     C_R   0.516571 0.062757 0.555202 0.482077
C169  C     C_R   0.497529 0.068243 0.972691 -0.083018
C170  C     C_R   0.494699 0.932408 0.027468 -0.067532
C171  C     C_R   0.967068 0.438310 0.972275 -0.105064
C172  C     C_R   0.007681 0.568066 0.027624 -0.105167
C173  C     C_R   0.506136 0.932894 0.972522 -0.082937
C174  C     C_R   0.506542 0.067384 0.027690 -0.068020
C175  C     C_R   0.007171 0.568206 0.972208 -0.102988
C176  C     C_R   0.964921 0.438690 0.027645 -0.102175
C177  C     C_R   0.993939 0.571044 0.472621 -0.082182
C178  C     C_R   0.993044 0.435446 0.527498 -0.068226
C179  C     C_R   0.475278 0.935740 0.472252 -0.104556
C180  C     C_R   0.513918 0.066134 0.527619 -0.104280
C181  C     C_R   0.004786 0.435850 0.472560 -0.083101
C182  C     C_R   0.002561 0.570566 0.527634 -0.066868
C183  C     C_R   0.512801 0.066412 0.472218 -0.103662
C184  C     C_R   0.473685 0.935922 0.527633 -0.103021
C185  C     C_R   0.501552 0.000400 0.986368 -0.004074
C186  C     C_R   0.500942 0.000068 0.013796 -0.031205
C187  C     C_R   0.986790 0.503350 0.986126 0.001870
C188  C     C_R   0.986386 0.503396 0.013781 -0.001147
C189  C     C_R   0.998958 0.503340 0.486350 -0.004356
C190  C     C_R   0.998169 0.503119 0.513779 -0.031397
C191  C     C_R   0.493922 0.001091 0.486121 0.001960
C192  C     C_R   0.493806 0.001061 0.513773 -0.001105
N1    N     N_R   0.501830 0.001007 0.932364 -0.339467
N2    N     N_R   0.499631 0.999331 0.067777 -0.356076
N3    N     N_R   0.990657 0.501973 0.931865 -0.334489
N4    N     N_R   0.989339 0.502369 0.068038 -0.338922
N5    N     N_R   0.000256 0.503689 0.432349 -0.339417
N6    N     N_R   0.997371 0.502603 0.567766 -0.356234
N7    N     N_R   0.495610 0.000575 0.431852 -0.334658
N8    N     N_R   0.495297 0.000529 0.568032 -0.338827
O1    O     O_3   0.000000 0.500000 0.750000 -0.514517
O2    O     O_3   1.000000 0.500000 0.250000 -0.501820
O3    O     O_3   0.500000 0.000000 0.750000 -0.501871
O4    O     O_3   0.500000 1.000000 0.250000 -0.514453
O5    O     O_R   0.000220 0.561630 0.808380 -0.613201
O6    O     O_R   0.999780 0.438370 0.191620 -0.623456
O7    O     O_R   0.438370 0.000220 0.808380 -0.624220
O8    O     O_R   0.561630 0.999780 0.191620 -0.615124
O9    O     O_R   0.999780 0.438370 0.808380 -0.611371
O10   O     O_R   0.000220 0.561630 0.191620 -0.623368
O11   O     O_R   0.561630 0.999780 0.808380 -0.620588
O12   O     O_R   0.438370 0.000220 0.191620 -0.616473
O13   O     O_R   0.500220 0.061630 0.308380 -0.612009
O14   O     O_R   0.499780 0.938370 0.691620 -0.622761
O15   O     O_R   0.938370 0.500220 0.308380 -0.624222
O16   O     O_R   0.061630 0.499780 0.691620 -0.614385
O17   O     O_R   0.499780 0.938370 0.308380 -0.611565
O18   O     O_R   0.500220 0.061630 0.691620 -0.623798
O19   O     O_R   0.061630 0.499780 0.308380 -0.621156
O20   O     O_R   0.938370 0.500220 0.691620 -0.616455
O21   O     O_R   0.086770 0.352080 0.765560 -0.600222
O22   O     O_R   0.913230 0.647920 0.234440 -0.600535
O23   O     O_R   0.647920 0.086770 0.765560 -0.595774
O24   O     O_R   0.352080 0.913230 0.234440 -0.611320
O25   O     O_R   0.913230 0.647920 0.765560 -0.599401
O26   O     O_R   0.086770 0.352080 0.234440 -0.599934
O27   O     O_R   0.352080 0.913230 0.765560 -0.598568
O28   O     O_R   0.647920 0.086770 0.234440 -0.614307
O29   O     O_R   0.586770 0.852080 0.265560 -0.599684
O30   O     O_R   0.413230 0.147920 0.734440 -0.601556
O31   O     O_R   0.147920 0.586770 0.265560 -0.594438
O32   O     O_R   0.852080 0.413230 0.734440 -0.610391
O33   O     O_R   0.413230 0.147920 0.265560 -0.599568
O34   O     O_R   0.586770 0.852080 0.734440 -0.600012
O35   O     O_R   0.852080 0.413230 0.265560 -0.599673
O36   O     O_R   0.147920 0.586770 0.734440 -0.612997
O37   O     O_R   0.852120 0.586630 0.735130 -0.656739
O38   O     O_R   0.147880 0.413370 0.264870 -0.671746
O39   O     O_R   0.413370 0.852120 0.735130 -0.675801
O40   O     O_R   0.586630 0.147880 0.264870 -0.669469
O41   O     O_R   0.147880 0.413370 0.735130 -0.659721
O42   O     O_R   0.852120 0.586630 0.264870 -0.671424
O43   O     O_R   0.586630 0.147880 0.735130 -0.674580
O44   O     O_R   0.413370 0.852120 0.264870 -0.667152
O45   O     O_R   0.352120 0.086630 0.235130 -0.657601
O46   O     O_R   0.647880 0.913370 0.764870 -0.671267
O47   O     O_R   0.913370 0.352120 0.235130 -0.676354
O48   O     O_R   0.086630 0.647880 0.764870 -0.670042
O49   O     O_R   0.647880 0.913370 0.235130 -0.659253
O50   O     O_R   0.352120 0.086630 0.764870 -0.671485
O51   O     O_R   0.086630 0.647880 0.235130 -0.674108
O52   O     O_R   0.913370 0.352120 0.764870 -0.668183
O53   O     O_2   0.537993 0.877642 0.931475 -0.563805
O54   O     O_2   0.541957 0.121209 0.068607 -0.527926
O55   O     O_2   0.011800 0.628473 0.930336 -0.583677
O56   O     O_2   0.941861 0.383294 0.069630 -0.582898
O57   O     O_2   0.466192 0.124556 0.931785 -0.565193
O58   O     O_2   0.456982 0.877535 0.067994 -0.531095
O59   O     O_2   0.969723 0.375315 0.930977 -0.581547
O60   O     O_2   0.037436 0.621245 0.069385 -0.579316
O61   O     O_2   0.038029 0.380818 0.431622 -0.564140
O62   O     O_2   0.037696 0.625181 0.568446 -0.528519
O63   O     O_2   0.513932 0.127536 0.430493 -0.582405
O64   O     O_2   0.449892 0.880650 0.569583 -0.581854
O65   O     O_2   0.962873 0.626673 0.431558 -0.565492
O66   O     O_2   0.956500 0.380200 0.568096 -0.530523
O67   O     O_2   0.477360 0.873549 0.430783 -0.581564
O68   O     O_2   0.541019 0.120309 0.569452 -0.580700
Zn1   Zn    Zn3+2 0.088070 0.500110 0.728590 1.012238
Zn2   Zn    Zn3+2 0.911930 0.499890 0.271410 0.993591
Zn3   Zn    Zn3+2 0.499890 0.088070 0.728590 0.983338
Zn4   Zn    Zn3+2 0.500110 0.911930 0.271410 1.033243
Zn5   Zn    Zn3+2 0.911930 0.499890 0.728590 1.014794
Zn6   Zn    Zn3+2 0.088070 0.500110 0.271410 0.998758
Zn7   Zn    Zn3+2 0.500110 0.911930 0.728590 0.983789
Zn8   Zn    Zn3+2 0.499890 0.088070 0.271410 1.032810
Zn9   Zn    Zn3+2 0.588070 0.000110 0.228590 1.011227
Zn10  Zn    Zn3+2 0.411930 0.999890 0.771410 0.994847
Zn11  Zn    Zn3+2 0.999890 0.588070 0.228590 0.983954
Zn12  Zn    Zn3+2 0.000110 0.411930 0.771410 1.032277
Zn13  Zn    Zn3+2 0.411930 0.999890 0.228590 1.013672
Zn14  Zn    Zn3+2 0.588070 0.000110 0.771410 0.998384
Zn15  Zn    Zn3+2 0.000110 0.411930 0.228590 0.983273
Zn16  Zn    Zn3+2 0.999890 0.588070 0.771410 1.032733
C193  C     C_3   0.225188 0.869819 0.713847 -0.419442
C194  C     C_3   0.152830 0.864873 0.698748 -0.376037
C195  C     C_3   0.151891 0.919588 0.676169 -0.780687
H1    H     H_    0.164607 0.976173 0.683169 0.268964
H2    H     H_    0.193135 0.903499 0.661288 0.299667
H3    H     H_    0.096693 0.919537 0.666956 0.248041
H4    H     H_    0.144186 0.808522 0.690862 0.255083
H5    H     H_    0.106792 0.877517 0.712053 0.212985
H6    H     H_    0.227284 0.922786 0.724723 0.191119
H7    H     H_    0.272252 0.868888 0.700021 0.208519
C196  C     C_3   0.773390 0.131254 0.285562 -0.404076
C197  C     C_3   0.844232 0.137746 0.301461 -0.354368
C198  C     C_3   0.845765 0.080375 0.323215 -0.839676
H8    H     H_    0.801780 0.091847 0.337664 0.274948
H9    H     H_    0.837317 0.024163 0.315162 0.268350
H10   H     H_    0.899741 0.082469 0.333274 0.249633
H11   H     H_    0.891967 0.129099 0.288475 0.214594
H12   H     H_    0.849381 0.193388 0.310290 0.249365
H13   H     H_    0.725259 0.130725 0.298920 0.228247
H14   H     H_    0.773466 0.078489 0.274546 0.198061
C199  C     C_3   0.114218 0.194795 0.729158 -0.421866
C200  C     C_3   0.116976 0.113187 0.721154 -0.354664
C201  C     C_3   0.049372 0.091366 0.705347 -0.885792
H15   H     H_    0.998706 0.101959 0.716661 0.263449
H16   H     H_    0.047466 0.122998 0.686828 0.278378
H17   H     H_    0.051420 0.031638 0.700752 0.256580
H18   H     H_    0.166608 0.101897 0.709278 0.233874
H19   H     H_    0.119031 0.077745 0.738727 0.208676
H20   H     H_    0.070202 0.202547 0.743903 0.210966
H21   H     H_    0.101024 0.229411 0.711922 0.217646
C202  C     C_3   0.885852 0.803900 0.271939 -0.423143
C203  C     C_3   0.884866 0.885718 0.279736 -0.354825
C204  C     C_3   0.951600 0.905598 0.296303 -0.889589
H22   H     H_    0.950993 0.873879 0.314817 0.271295
H23   H     H_    0.002935 0.893634 0.285523 0.265097
H24   H     H_    0.950750 0.965336 0.300924 0.256840
H25   H     H_    0.885830 0.920944 0.262105 0.211551
H26   H     H_    0.834388 0.898955 0.290874 0.217832
H27   H     H_    0.897234 0.769226 0.289324 0.199269
H28   H     H_    0.930518 0.794803 0.257540 0.211687
C205  C     C_3   0.764285 0.142230 0.708949 -0.426772
C206  C     C_3   0.831553 0.153245 0.691319 -0.365481
C207  C     C_3   0.832012 0.097088 0.669224 -0.772718
H29   H     H_    0.828283 0.040090 0.677069 0.267818
H30   H     H_    0.784898 0.107075 0.655973 0.297823
H31   H     H_    0.883774 0.102655 0.657897 0.251148
H32   H     H_    0.831597 0.209328 0.682705 0.261504
H33   H     H_    0.882676 0.147091 0.702721 0.221106
H34   H     H_    0.765505 0.086298 0.717780 0.189172
H35   H     H_    0.713479 0.146285 0.697033 0.208577
C208  C     C_3   0.238593 0.856091 0.291027 -0.400771
C209  C     C_3   0.172996 0.844193 0.309345 -0.336868
C210  C     C_3   0.172818 0.901624 0.331062 -0.838415
H36   H     H_    0.222455 0.895393 0.343432 0.272624
H37   H     H_    0.172089 0.958184 0.322756 0.268056
H38   H     H_    0.123257 0.893931 0.343427 0.250230
H39   H     H_    0.120855 0.848312 0.298380 0.221544
H40   H     H_    0.175274 0.788574 0.318314 0.254482
H41   H     H_    0.290330 0.852460 0.302446 0.227172
H42   H     H_    0.236175 0.912116 0.282312 0.201277
C211  C     C_3   0.882260 0.803106 0.725777 -0.415741
C212  C     C_3   0.878755 0.885442 0.718607 -0.365967
C213  C     C_3   0.929991 0.903833 0.696002 -0.853646
H43   H     H_    0.986499 0.885473 0.700468 0.259209
H44   H     H_    0.910754 0.876119 0.677942 0.278352
H45   H     H_    0.930768 0.964322 0.692696 0.249149
H46   H     H_    0.822106 0.901716 0.713051 0.233895
H47   H     H_    0.895364 0.919115 0.735688 0.214717
H48   H     H_    0.929679 0.793658 0.738962 0.199972
H49   H     H_    0.890471 0.768995 0.708029 0.225520
C214  C     C_3   0.116880 0.195329 0.273605 -0.423642
C215  C     C_3   0.119538 0.112496 0.280139 -0.357507
C216  C     C_3   0.069707 0.093371 0.303062 -0.880508
H50   H     H_    0.089750 0.120830 0.321058 0.265587
H51   H     H_    0.012772 0.111293 0.299026 0.265247
H52   H     H_    0.069654 0.032822 0.306222 0.251379
H53   H     H_    0.101059 0.080177 0.262990 0.219073
H54   H     H_    0.176303 0.094847 0.284970 0.218123
H55   H     H_    0.108589 0.228463 0.291577 0.203789
H56   H     H_    0.069753 0.205973 0.260403 0.200714
C217  C     C_3   0.724843 0.369468 0.213798 -0.422825
C218  C     C_3   0.653104 0.363501 0.198344 -0.375200
C219  C     C_3   0.651999 0.418911 0.175984 -0.776639
H57   H     H_    0.664080 0.475366 0.183241 0.268077
H58   H     H_    0.693694 0.403716 0.161143 0.298744
H59   H     H_    0.596986 0.418610 0.166638 0.246746
H60   H     H_    0.645964 0.307301 0.190165 0.254683
H61   H     H_    0.606136 0.374588 0.211422 0.221382
H62   H     H_    0.725803 0.422399 0.224712 0.191320
H63   H     H_    0.772387 0.369298 0.200175 0.208292
C220  C     C_3   0.273298 0.631215 0.785490 -0.404265
C221  C     C_3   0.344333 0.637483 0.801298 -0.356541
C222  C     C_3   0.345715 0.580419 0.823156 -0.838344
H64   H     H_    0.301865 0.592312 0.837614 0.274979
H65   H     H_    0.336972 0.524117 0.815216 0.269115
H66   H     H_    0.399750 0.582406 0.833177 0.249660
H67   H     H_    0.391915 0.628311 0.788281 0.214742
H68   H     H_    0.349910 0.693233 0.810016 0.248678
H69   H     H_    0.225294 0.630792 0.798907 0.226400
H70   H     H_    0.273117 0.578454 0.774472 0.198057
C223  C     C_3   0.614662 0.697452 0.228211 -0.421673
C224  C     C_3   0.617208 0.617136 0.218798 -0.356629
C225  C     C_3   0.550015 0.598451 0.202305 -0.880563
H71   H     H_    0.499111 0.604637 0.213936 0.263924
H72   H     H_    0.547298 0.635023 0.184970 0.280077
H73   H     H_    0.553660 0.540568 0.195541 0.258032
H74   H     H_    0.667036 0.607224 0.206885 0.234327
H75   H     H_    0.618697 0.579155 0.235729 0.208651
H76   H     H_    0.570573 0.703329 0.243038 0.210580
H77   H     H_    0.601710 0.734483 0.211586 0.219891
C226  C     C_3   0.386165 0.305318 0.771145 -0.423779
C227  C     C_3   0.385004 0.387583 0.778365 -0.354796
C228  C     C_3   0.451278 0.408476 0.795004 -0.891296
H78   H     H_    0.449904 0.378252 0.813823 0.270828
H79   H     H_    0.502894 0.395420 0.784566 0.265750
H80   H     H_    0.450553 0.468580 0.799008 0.257460
H81   H     H_    0.386476 0.421784 0.760492 0.211279
H82   H     H_    0.334228 0.401527 0.789222 0.217899
H83   H     H_    0.398029 0.271659 0.788736 0.199315
H84   H     H_    0.430582 0.295575 0.756704 0.211202
C229  C     C_3   0.263603 0.643007 0.208528 -0.429114
C230  C     C_3   0.330010 0.655059 0.190559 -0.354219
C231  C     C_3   0.335525 0.593745 0.170345 -0.788011
H85   H     H_    0.338646 0.539028 0.180017 0.258248
H86   H     H_    0.286929 0.594971 0.157303 0.302858
H87   H     H_    0.385816 0.601935 0.158394 0.254900
H88   H     H_    0.325104 0.708490 0.180199 0.260418
H89   H     H_    0.381504 0.656407 0.201980 0.223893
H90   H     H_    0.265520 0.587042 0.217300 0.190623
H91   H     H_    0.212360 0.646566 0.196832 0.206717
C232  C     C_3   0.737850 0.357290 0.790729 -0.401197
C233  C     C_3   0.671917 0.346034 0.808944 -0.337205
C234  C     C_3   0.671674 0.403906 0.830512 -0.839089
H92   H     H_    0.720948 0.397487 0.843047 0.272138
H93   H     H_    0.671676 0.460301 0.822063 0.268303
H94   H     H_    0.621748 0.396897 0.842740 0.250387
H95   H     H_    0.619971 0.350124 0.797866 0.221207
H96   H     H_    0.673801 0.290601 0.818064 0.254523
H97   H     H_    0.789380 0.353780 0.802270 0.226791
H98   H     H_    0.735775 0.413118 0.781846 0.201192
C235  C     C_3   0.384482 0.304806 0.227992 -0.422877
C236  C     C_3   0.377225 0.382199 0.216104 -0.333326
C237  C     C_3   0.451854 0.413540 0.208410 -0.906809
H99   H     H_    0.486747 0.421051 0.225950 0.261905
H100  H     H_    0.479490 0.376170 0.194388 0.278284
H101  H     H_    0.444114 0.468001 0.198986 0.257922
H102  H     H_    0.342386 0.379980 0.198413 0.235045
H103  H     H_    0.351424 0.420693 0.230082 0.214435
H104  H     H_    0.426470 0.305419 0.243699 0.213658
H105  H     H_    0.402752 0.265662 0.212671 0.215467
C238  C     C_3   0.617604 0.696848 0.774240 -0.422966
C239  C     C_3   0.619777 0.614158 0.780990 -0.358026
C240  C     C_3   0.569665 0.595955 0.803935 -0.880646
H106  H     H_    0.590185 0.623209 0.821904 0.266008
H107  H     H_    0.513018 0.614823 0.799909 0.265371
H108  H     H_    0.568598 0.535439 0.807151 0.251617
H109  H     H_    0.601204 0.581523 0.763916 0.219036
H110  H     H_    0.676428 0.596357 0.785923 0.218431
H111  H     H_    0.610158 0.730425 0.792157 0.204030
H112  H     H_    0.570123 0.707562 0.761204 0.200798
C241  C     C_3   0.111939 0.816250 0.764792 -0.377864
C242  C     C_3   0.118788 0.899443 0.770559 -0.357880
C243  C     C_3   0.071768 0.921411 0.793884 -0.879816
H113  H     H_    0.014009 0.903098 0.791007 0.264802
H114  H     H_    0.093610 0.895720 0.811920 0.270408
H115  H     H_    0.073163 0.982246 0.796260 0.253411
H116  H     H_    0.176595 0.915590 0.774707 0.248024
H117  H     H_    0.100741 0.931620 0.753320 0.212753
H118  H     H_    0.069850 0.806848 0.749487 0.180300
H119  H     H_    0.093580 0.785948 0.782488 0.227010
C244  C     C_3   0.886842 0.186001 0.234632 -0.380825
C245  C     C_3   0.881343 0.102977 0.228846 -0.359435
C246  C     C_3   0.935948 0.080870 0.207742 -0.901008
H120  H     H_    0.920084 0.105876 0.188817 0.268389
H121  H     H_    0.992130 0.099952 0.212939 0.263576
H122  H     H_    0.935826 0.020021 0.205544 0.256595
H123  H     H_    0.893092 0.071020 0.246816 0.217775
H124  H     H_    0.825289 0.087456 0.222218 0.239788
H125  H     H_    0.904514 0.216394 0.216869 0.224929
H126  H     H_    0.928857 0.195981 0.249921 0.186076
C247  C     C_3   0.200651 0.128129 0.781668 -0.382483
C248  C     C_3   0.240591 0.123129 0.808008 -0.333270
C249  C     C_3   0.237827 0.044978 0.819025 -0.781918
H127  H     H_    0.179997 0.027539 0.822314 0.249744
H128  H     H_    0.264755 0.005866 0.805429 0.305724
H129  H     H_    0.267500 0.043408 0.837884 0.231830
H130  H     H_    0.299044 0.140271 0.806101 0.230455
H131  H     H_    0.214077 0.160782 0.822203 0.233073
H132  H     H_    0.140681 0.133718 0.785238 0.201145
H133  H     H_    0.209343 0.076804 0.770297 0.202698
C250  C     C_3   0.802240 0.874867 0.220035 -0.395414
C251  C     C_3   0.765924 0.882690 0.193175 -0.353195
C252  C     C_3   0.771506 0.961751 0.183110 -0.780339
H134  H     H_    0.742002 0.999949 0.196358 0.297365
H135  H     H_    0.829941 0.978820 0.181509 0.249005
H136  H     H_    0.746302 0.965499 0.163523 0.230770
H137  H     H_    0.793895 0.845928 0.179035 0.209535
H138  H     H_    0.707104 0.866380 0.194006 0.257039
H139  H     H_    0.792085 0.925127 0.231848 0.207627
H140  H     H_    0.862586 0.869564 0.217303 0.196085
C253  C     C_3   0.890347 0.179492 0.757843 -0.390760
C254  C     C_3   0.883186 0.095112 0.759741 -0.361443
C255  C     C_3   0.948860 0.061330 0.773596 -0.915476
H141  H     H_    0.000883 0.076820 0.763684 0.274859
H142  H     H_    0.950973 0.080175 0.794166 0.269528
H143  H     H_    0.942994 0.000441 0.773361 0.252274
H144  H     H_    0.832705 0.079116 0.770563 0.239443
H145  H     H_    0.879332 0.070823 0.739972 0.220199
H146  H     H_    0.929254 0.194726 0.742064 0.187423
H147  H     H_    0.912591 0.202030 0.776373 0.219166
C256  C     C_3   0.111056 0.819847 0.242578 -0.390082
C257  C     C_3   0.118398 0.904182 0.241130 -0.362328
C258  C     C_3   0.053064 0.938422 0.227308 -0.922641
H148  H     H_    0.050182 0.918998 0.206816 0.267012
H149  H     H_    0.001110 0.924107 0.237475 0.275888
H150  H     H_    0.060111 0.999120 0.227266 0.252479
H151  H     H_    0.121813 0.927629 0.261043 0.222583
H152  H     H_    0.169074 0.920544 0.230482 0.233723
H153  H     H_    0.088273 0.798020 0.224025 0.217515
H154  H     H_    0.072654 0.804050 0.258449 0.189537
C259  C     C_3   0.804750 0.875246 0.778594 -0.379985
C260  C     C_3   0.770303 0.883979 0.805753 -0.333561
C261  C     C_3   0.777630 0.963131 0.815467 -0.789775
H155  H     H_    0.836368 0.980126 0.816012 0.251843
H156  H     H_    0.746929 0.000703 0.802389 0.306099
H157  H     H_    0.754247 0.967513 0.835379 0.238307
H158  H     H_    0.711183 0.868448 0.805560 0.233778
H159  H     H_    0.798611 0.847131 0.819760 0.240893
H160  H     H_    0.865203 0.869450 0.780798 0.198027
H161  H     H_    0.794315 0.925103 0.766576 0.201066
C262  C     C_3   0.195392 0.124187 0.221360 -0.393375
C263  C     C_3   0.228915 0.114047 0.194157 -0.356146
C264  C     C_3   0.219820 0.034668 0.184772 -0.784531
H162  H     H_    0.250982 0.996761 0.197618 0.299778
H163  H     H_    0.160835 0.018502 0.184831 0.249708
H164  H     H_    0.241411 0.029451 0.164643 0.235751
H165  H     H_    0.200652 0.150916 0.180133 0.209800
H166  H     H_    0.288244 0.128550 0.194151 0.258066
H167  H     H_    0.205761 0.074596 0.233522 0.209288
H168  H     H_    0.134943 0.130225 0.219262 0.190969
C265  C     C_3   0.611823 0.315677 0.264740 -0.381316
C266  C     C_3   0.618398 0.398754 0.270603 -0.362200
C267  C     C_3   0.567882 0.420876 0.292966 -0.886118
H169  H     H_    0.510666 0.402463 0.289021 0.265091
H170  H     H_    0.586938 0.395316 0.311420 0.270831
H171  H     H_    0.568937 0.481710 0.295317 0.254966
H172  H     H_    0.675541 0.414384 0.275925 0.249080
H173  H     H_    0.603560 0.431064 0.253018 0.209377
H174  H     H_    0.569790 0.306259 0.249417 0.183566
H175  H     H_    0.593594 0.285275 0.282430 0.227636
C268  C     C_3   0.386449 0.685688 0.734485 -0.380797
C269  C     C_3   0.380441 0.602676 0.728695 -0.359200
C270  C     C_3   0.434637 0.580233 0.707505 -0.899529
H176  H     H_    0.418517 0.605109 0.688585 0.268716
H177  H     H_    0.490951 0.599217 0.712563 0.263734
H178  H     H_    0.434329 0.519361 0.705385 0.256061
H179  H     H_    0.392267 0.570655 0.746643 0.217481
H180  H     H_    0.324223 0.587411 0.722158 0.240218
H181  H     H_    0.404117 0.716018 0.716708 0.224695
H182  H     H_    0.428655 0.695433 0.749728 0.185944
C271  C     C_3   0.698949 0.626837 0.280531 -0.381681
C272  C     C_3   0.737446 0.620489 0.307113 -0.333457
C273  C     C_3   0.734927 0.541663 0.317508 -0.780301
H183  H     H_    0.677136 0.523486 0.320311 0.249874
H184  H     H_    0.762926 0.503701 0.303782 0.305077
H185  H     H_    0.763665 0.539169 0.336538 0.232546
H186  H     H_    0.795815 0.638343 0.305776 0.230815
H187  H     H_    0.709752 0.656990 0.321404 0.233203
H188  H     H_    0.638812 0.632394 0.283729 0.200559
H189  H     H_    0.708026 0.576126 0.268848 0.201330
C274  C     C_3   0.301370 0.373353 0.719257 -0.396195
C275  C     C_3   0.264733 0.380582 0.692460 -0.350860
C276  C     C_3   0.272950 0.458797 0.681789 -0.787229
H190  H     H_    0.244582 0.498767 0.694697 0.295358
H191  H     H_    0.331924 0.473887 0.680145 0.249589
H192  H     H_    0.248138 0.462138 0.662139 0.230730
H193  H     H_    0.291139 0.342012 0.678550 0.209715
H194  H     H_    0.205431 0.366387 0.693604 0.259352
H195  H     H_    0.291597 0.424068 0.730864 0.209078
H196  H     H_    0.361644 0.367690 0.716411 0.196754
C277  C     C_3   0.390641 0.679039 0.257120 -0.393040
C278  C     C_3   0.383544 0.594539 0.257830 -0.357003
C279  C     C_3   0.449725 0.559072 0.270766 -0.914277
H197  H     H_    0.501401 0.576416 0.261001 0.273195
H198  H     H_    0.452229 0.574601 0.291673 0.268795
H199  H     H_    0.444106 0.498295 0.269254 0.259216
H200  H     H_    0.333439 0.577329 0.268673 0.238393
H201  H     H_    0.379184 0.572633 0.237735 0.226198
H202  H     H_    0.429801 0.695991 0.241636 0.188056
H203  H     H_    0.412623 0.699551 0.275977 0.217869
C280  C     C_3   0.611196 0.320074 0.742074 -0.389945
C281  C     C_3   0.618820 0.404379 0.740521 -0.361036
C282  C     C_3   0.553882 0.438733 0.726504 -0.923566
H204  H     H_    0.551753 0.419682 0.705958 0.267201
H205  H     H_    0.501631 0.424065 0.736407 0.276108
H206  H     H_    0.560756 0.499466 0.726663 0.252821
H207  H     H_    0.621911 0.428053 0.760404 0.221980
H208  H     H_    0.669764 0.420438 0.729985 0.234991
H209  H     H_    0.588776 0.298086 0.723489 0.217126
H210  H     H_    0.572407 0.304598 0.757867 0.189417
C283  C     C_3   0.302297 0.374035 0.279854 -0.375326
C284  C     C_3   0.266672 0.380294 0.306914 -0.336110
C285  C     C_3   0.272277 0.458841 0.317365 -0.786586
H211  H     H_    0.330664 0.476951 0.318200 0.252081
H212  H     H_    0.241053 0.496765 0.304571 0.308548
H213  H     H_    0.248446 0.461269 0.337253 0.235685
H214  H     H_    0.207786 0.363907 0.306245 0.231646
H215  H     H_    0.295040 0.342969 0.320744 0.241319
H216  H     H_    0.362781 0.369299 0.282234 0.199266
H217  H     H_    0.291251 0.424738 0.268416 0.202452
C286  C     C_3   0.694530 0.623747 0.721813 -0.392695
C287  C     C_3   0.727367 0.613571 0.694503 -0.358235
C288  C     C_3   0.717993 0.534254 0.685109 -0.784901
H218  H     H_    0.749316 0.496273 0.697874 0.299691
H219  H     H_    0.658988 0.518203 0.685264 0.250537
H220  H     H_    0.739281 0.529088 0.664937 0.236301
H221  H     H_    0.698844 0.650526 0.680573 0.209680
H222  H     H_    0.786718 0.627982 0.694325 0.256491
H223  H     H_    0.705336 0.574276 0.733989 0.208964
H224  H     H_    0.634021 0.629718 0.719921 0.190764
C289  C     C_2   0.251703 0.803236 0.801727 0.383925
H225  H     H_    0.216419 0.775725 0.815766 0.064785
O69   O     O_2   0.288972 0.855649 0.808567 -0.557241
C290  C     C_2   0.743778 0.197166 0.197671 0.371984
H226  H     H_    0.786023 0.215571 0.184210 0.078428
O70   O     O_2   0.695349 0.155784 0.190045 -0.555084
C291  C     C_2   0.226455 0.299819 0.801958 0.350150
H227  H     H_    0.272819 0.310917 0.814632 0.065089
O71   O     O_2   0.164177 0.305148 0.810553 -0.543089
C292  C     C_2   0.772512 0.705469 0.197615 0.351134
H228  H     H_    0.733882 0.723792 0.182924 0.075015
O72   O     O_2   0.823602 0.666119 0.191302 -0.583836
C293  C     C_2   0.760843 0.183046 0.799743 0.356786
H229  H     H_    0.806902 0.199077 0.811915 0.068450
O73   O     O_2   0.715732 0.139144 0.808014 -0.560708
C294  C     C_2   0.242015 0.818664 0.200185 0.358368
H230  H     H_    0.191985 0.811603 0.188979 0.075209
O74   O     O_2   0.293363 0.853133 0.190830 -0.559213
C295  C     C_2   0.779483 0.705026 0.802005 0.350871
H231  H     H_    0.734782 0.688185 0.814687 0.070793
O75   O     O_2   0.842154 0.706087 0.810433 -0.546528
C296  C     C_2   0.225183 0.292847 0.197588 0.355349
H232  H     H_    0.261041 0.271031 0.182601 0.070548
O76   O     O_2   0.176555 0.335538 0.191566 -0.581877
C297  C     C_2   0.751717 0.303206 0.301727 0.379183
H233  H     H_    0.715658 0.276386 0.315686 0.066403
O77   O     O_2   0.790017 0.354756 0.308666 -0.557130
C298  C     C_2   0.243254 0.697687 0.697621 0.373645
H234  H     H_    0.285365 0.716192 0.684124 0.078290
O78   O     O_2   0.194729 0.656388 0.690015 -0.554761
C299  C     C_2   0.724970 0.797424 0.302137 0.349203
H235  H     H_    0.770955 0.807302 0.315104 0.064310
O79   O     O_2   0.662433 0.802914 0.310479 -0.543030
C300  C     C_2   0.270317 0.202511 0.697862 0.352402
H236  H     H_    0.231491 0.220643 0.683207 0.075341
O80   O     O_2   0.320537 0.161960 0.691625 -0.585977
C301  C     C_2   0.262422 0.681540 0.299401 0.360361
H237  H     H_    0.308780 0.697404 0.311457 0.066996
O81   O     O_2   0.217698 0.637285 0.307702 -0.561630
C302  C     C_2   0.742658 0.317392 0.700001 0.359560
H238  H     H_    0.693492 0.308359 0.688491 0.075866
O82   O     O_2   0.793205 0.353566 0.690905 -0.559328
C303  C     C_2   0.277718 0.202806 0.302003 0.349486
H239  H     H_    0.232596 0.186109 0.314520 0.071985
O83   O     O_2   0.340232 0.202904 0.310580 -0.545993
C304  C     C_2   0.724827 0.792395 0.697462 0.369277
H240  H     H_    0.761061 0.770955 0.682521 0.071663
O84   O     O_2   0.676037 0.834845 0.691388 -0.583766
C305  C     C_2   0.505011 0.207665 0.972351 0.456480
H241  H     H_    0.543468 0.214177 0.956330 0.092385
O85   O     O_2   0.464824 0.258996 0.978013 -0.546357
C306  C     C_2   0.500431 0.792623 0.027649 0.617693
H242  H     H_    0.463641 0.748140 0.021994 0.053065
O86   O     O_2   0.546074 0.781616 0.044627 -0.532178
C307  C     C_2   0.911587 0.309987 0.971938 0.575978
H243  H     H_    0.869859 0.317636 0.957092 0.072415
O87   O     O_2   0.934139 0.247896 0.976380 -0.550269
C308  C     C_2   0.045105 0.703024 0.027485 0.593872
H244  H     H_    0.005721 0.726875 0.040916 0.084217
O88   O     O_2   0.104459 0.733450 0.024255 -0.550947
C309  C     C_2   0.500019 0.793389 0.971853 0.455086
H245  H     H_    0.461809 0.786494 0.955804 0.091580
O89   O     O_2   0.541092 0.742709 0.977438 -0.544793
C310  C     C_2   0.501992 0.207215 0.028173 0.621100
H246  H     H_    0.539851 0.251255 0.022944 0.057086
O90   O     O_2   0.455293 0.218517 0.044788 -0.530006
C311  C     C_2   0.053930 0.700101 0.972135 0.588010
H247  H     H_    0.099409 0.696552 0.958498 0.074424
O91   O     O_2   0.023739 0.759375 0.975484 -0.545007
C312  C     C_2   0.916912 0.307015 0.027345 0.599124
H248  H     H_    0.954712 0.277056 0.039757 0.088450
O92   O     O_2   0.853842 0.284716 0.024927 -0.551434
C313  C     C_2   0.997868 0.710615 0.472284 0.455508
H249  H     H_    0.036721 0.718422 0.456452 0.092052
O93   O     O_2   0.955736 0.760524 0.477749 -0.546223
C314  C     C_2   0.000767 0.295776 0.527757 0.617902
H250  H     H_    0.964475 0.250827 0.522159 0.053034
O94   O     O_2   0.046677 0.285410 0.544695 -0.532524
C315  C     C_2   0.424457 0.805465 0.471993 0.579999
H251  H     H_    0.381531 0.811363 0.457478 0.072321
O95   O     O_2   0.450184 0.744471 0.476129 -0.547791
C316  C     C_2   0.551496 0.201094 0.527427 0.595826
H252  H     H_    0.511924 0.225789 0.540593 0.085264
O96   O     O_2   0.611388 0.230600 0.524402 -0.550785
C317  C     C_2   0.000544 0.296289 0.471964 0.455472
H253  H     H_    0.962570 0.288847 0.455874 0.091718
O97   O     O_2   0.042222 0.246172 0.477616 -0.545040
C318  C     C_2   0.994535 0.710201 0.528081 0.617847
H254  H     H_    0.030786 0.755443 0.522709 0.054854
O98   O     O_2   0.947962 0.720028 0.544860 -0.532532
C319  C     C_2   0.559540 0.198276 0.472067 0.585677
H255  H     H_    0.604113 0.194367 0.458073 0.073523
O99   O     O_2   0.530300 0.257881 0.475738 -0.545357
C320  C     C_2   0.431151 0.802388 0.527373 0.598285
H256  H     H_    0.470099 0.774804 0.540025 0.087198
O100  O     O_2   0.369449 0.776625 0.524774 -0.551039
C321  C     C_3   0.120458 0.433302 0.594258 -0.385871
C322  C     C_3   0.189262 0.481090 0.598493 -0.377374
C323  C     C_3   0.256978 0.445710 0.586291 -0.823380
H257  H     H_    0.267727 0.391260 0.595437 0.254817
H258  H     H_    0.248874 0.438238 0.565008 0.275575
H259  H     H_    0.305611 0.481863 0.589425 0.260047
H260  H     H_    0.180592 0.536175 0.589490 0.262779
H261  H     H_    0.199610 0.489585 0.619569 0.217874
H262  H     H_    0.130152 0.375217 0.600158 0.213860
H263  H     H_    0.111146 0.430820 0.573005 0.230148
C324  C     C_3   0.123744 0.570896 0.404871 -0.424224
C325  C     C_3   0.191210 0.521659 0.400877 -0.366127
C326  C     C_3   0.259280 0.554890 0.413750 -0.808652
H264  H     H_    0.272186 0.609599 0.405072 0.259028
H265  H     H_    0.250229 0.561305 0.435030 0.269217
H266  H     H_    0.306965 0.517893 0.410659 0.261841
H267  H     H_    0.180233 0.466429 0.409526 0.262435
H268  H     H_    0.202621 0.513943 0.379817 0.211039
H269  H     H_    0.134995 0.628260 0.398336 0.194524
H270  H     H_    0.114634 0.575231 0.426109 0.213064
C327  C     C_3   0.628617 0.955216 0.593483 -0.325973
C328  C     C_3   0.643024 0.872951 0.598421 -0.360189
C329  C     C_3   0.708466 0.845687 0.582562 -0.802499
H271  H     H_    0.697892 0.852800 0.561402 0.263530
H272  H     H_    0.758974 0.876709 0.587998 0.280516
H273  H     H_    0.717451 0.786187 0.586554 0.250949
H274  H     H_    0.654259 0.862688 0.619351 0.252625
H275  H     H_    0.593501 0.840409 0.592870 0.244402
H276  H     H_    0.620429 0.962039 0.572246 0.188605
H277  H     H_    0.678017 0.989179 0.597542 0.258090
C330  C     C_3   0.358879 0.023671 0.404839 -0.398863
C331  C     C_3   0.310678 0.953984 0.403719 -0.366409
C332  C     C_3   0.239117 0.964459 0.418750 -0.843577
H278  H     H_    0.250822 0.976257 0.439575 0.269095
H279  H     H_    0.207154 0.010699 0.410291 0.270377
H280  H     H_    0.205487 0.913289 0.417548 0.253700
H281  H     H_    0.297131 0.939912 0.383240 0.227045
H282  H     H_    0.340930 0.906783 0.412313 0.256544
H283  H     H_    0.368688 0.037236 0.425600 0.220961
H284  H     H_    0.328792 0.072128 0.397205 0.196006
C333  C     C_3   0.875435 0.570477 0.595463 -0.385787
C334  C     C_3   0.807306 0.521468 0.599430 -0.376730
C335  C     C_3   0.739040 0.556705 0.587597 -0.825871
H285  H     H_    0.727651 0.610426 0.597160 0.254920
H286  H     H_    0.746884 0.565605 0.566363 0.275105
H287  H     H_    0.690900 0.519730 0.590536 0.260430
H288  H     H_    0.816648 0.467118 0.589983 0.263279
H289  H     H_    0.797166 0.511476 0.620463 0.218431
H290  H     H_    0.865111 0.627800 0.602104 0.212691
H291  H     H_    0.884320 0.575202 0.574222 0.231583
C336  C     C_3   0.875981 0.436337 0.405519 -0.425155
C337  C     C_3   0.808352 0.484866 0.400891 -0.365934
C338  C     C_3   0.740353 0.452740 0.414207 -0.811007
H292  H     H_    0.727693 0.397115 0.406269 0.258965
H293  H     H_    0.749333 0.448587 0.435558 0.268624
H294  H     H_    0.692540 0.489204 0.410628 0.261349
H295  H     H_    0.819086 0.541003 0.408792 0.261303
H296  H     H_    0.796988 0.490300 0.379753 0.209675
H297  H     H_    0.865050 0.378367 0.399640 0.195254
H298  H     H_    0.884763 0.434054 0.426810 0.211852
C339  C     C_3   0.364132 0.044782 0.595199 -0.328991
C340  C     C_3   0.349675 0.126689 0.600791 -0.364039
C341  C     C_3   0.283139 0.154503 0.585673 -0.804634
H299  H     H_    0.292443 0.148660 0.564386 0.264420
H300  H     H_    0.233128 0.122909 0.591318 0.279589
H301  H     H_    0.274116 0.213714 0.590146 0.250202
H302  H     H_    0.339658 0.135684 0.621877 0.251596
H303  H     H_    0.398694 0.159782 0.595040 0.244896
H304  H     H_    0.370553 0.039007 0.573843 0.190025
H305  H     H_    0.315256 0.010440 0.599676 0.259212
C342  C     C_3   0.634360 0.976539 0.406173 -0.400852
C343  C     C_3   0.682861 0.046068 0.405410 -0.365481
C344  C     C_3   0.752408 0.036001 0.421582 -0.841154
H306  H     H_    0.738028 0.025182 0.442276 0.268247
H307  H     H_    0.785205 0.989264 0.413900 0.271028
H308  H     H_    0.786379 0.086989 0.420597 0.254026
H309  H     H_    0.699051 0.059284 0.385076 0.229721
H310  H     H_    0.651712 0.093683 0.413289 0.257221
H311  H     H_    0.622786 0.963172 0.426848 0.221750
H312  H     H_    0.664941 0.927941 0.398902 0.195636
C345  C     C_3   0.620895 0.928533 0.094813 -0.386064
C346  C     C_3   0.690088 0.976011 0.098669 -0.376152
C347  C     C_3   0.757461 0.939368 0.086695 -0.825727
H313  H     H_    0.767807 0.885369 0.096229 0.254131
H314  H     H_    0.749206 0.930724 0.065476 0.275595
H315  H     H_    0.806401 0.975294 0.089544 0.259839
H316  H     H_    0.681823 0.030627 0.089269 0.262994
H317  H     H_    0.700605 0.985634 0.119677 0.217541
H318  H     H_    0.630156 0.870776 0.101189 0.212732
H319  H     H_    0.611520 0.924645 0.073592 0.231410
C348  C     C_3   0.625565 0.067477 0.904756 -0.423559
C349  C     C_3   0.692830 0.018596 0.899848 -0.367602
C350  C     C_3   0.761605 0.050991 0.912514 -0.806821
H320  H     H_    0.774023 0.106267 0.904205 0.259435
H321  H     H_    0.753743 0.055988 0.933901 0.270110
H322  H     H_    0.809111 0.014234 0.908779 0.260991
H323  H     H_    0.682365 0.962778 0.908095 0.261539
H324  H     H_    0.703076 0.012303 0.878653 0.210957
H325  H     H_    0.636460 0.125352 0.898727 0.194875
H326  H     H_    0.617563 0.069986 0.926089 0.212849
C351  C     C_3   0.123097 0.454107 0.092490 -0.325312
C352  C     C_3   0.136290 0.371503 0.097143 -0.358676
C353  C     C_3   0.200380 0.343384 0.080785 -0.804127
H327  H     H_    0.188818 0.351094 0.059717 0.262699
H328  H     H_    0.251707 0.373400 0.085954 0.281441
H329  H     H_    0.208515 0.283654 0.084579 0.250652
H330  H     H_    0.148440 0.360642 0.117970 0.252032
H331  H     H_    0.085913 0.339955 0.091850 0.244246
H332  H     H_    0.113893 0.461458 0.071328 0.188249
H333  H     H_    0.173302 0.487117 0.096277 0.258442
C354  C     C_3   0.855704 0.527500 0.904026 -0.398763
C355  C     C_3   0.806167 0.458774 0.902838 -0.368119
C356  C     C_3   0.734143 0.471086 0.917405 -0.840492
H334  H     H_    0.745101 0.483186 0.938259 0.269584
H335  H     H_    0.703528 0.517746 0.908609 0.270168
H336  H     H_    0.699550 0.420572 0.916161 0.254259
H337  H     H_    0.793311 0.444459 0.882327 0.227241
H338  H     H_    0.835039 0.411186 0.911758 0.256425
H339  H     H_    0.864875 0.541365 0.924799 0.221044
H340  H     H_    0.826938 0.576375 0.896085 0.196030
C357  C     C_3   0.377314 0.068262 0.094863 -0.386491
C358  C     C_3   0.308765 0.019756 0.098689 -0.376127
C359  C     C_3   0.241133 0.055060 0.086430 -0.825886
H341  H     H_    0.229729 0.109117 0.095751 0.255223
H342  H     H_    0.249774 0.063311 0.065201 0.274546
H343  H     H_    0.192674 0.018454 0.089283 0.260445
H344  H     H_    0.318118 0.965097 0.089468 0.263445
H345  H     H_    0.297822 0.010401 0.119710 0.218106
H346  H     H_    0.367145 0.125775 0.101327 0.213579
H347  H     H_    0.386891 0.072539 0.073645 0.230268
C360  C     C_3   0.376871 0.934512 0.905576 -0.424280
C361  C     C_3   0.309360 0.983436 0.901271 -0.366746
C362  C     C_3   0.241535 0.951373 0.914718 -0.812850
H348  H     H_    0.228440 0.895945 0.906695 0.259267
H349  H     H_    0.250998 0.946797 0.936031 0.268053
H350  H     H_    0.193803 0.988112 0.911363 0.261174
H351  H     H_    0.320538 0.039380 0.909267 0.260636
H352  H     H_    0.297511 0.989286 0.880184 0.210000
H353  H     H_    0.365586 0.876757 0.899518 0.195412
H354  H     H_    0.385994 0.931604 0.926837 0.211963
C363  C     C_3   0.860610 0.548858 0.096194 -0.328386
C364  C     C_3   0.847978 0.630847 0.102206 -0.362669
C365  C     C_3   0.781210 0.660412 0.087644 -0.806075
H355  H     H_    0.789288 0.655090 0.066277 0.265173
H356  H     H_    0.730914 0.629586 0.093494 0.280160
H357  H     H_    0.773543 0.719639 0.092410 0.248208
H358  H     H_    0.839227 0.639352 0.123388 0.253084
H359  H     H_    0.897304 0.663204 0.096266 0.244540
H360  H     H_    0.865920 0.543701 0.074779 0.189977
H361  H     H_    0.811313 0.515284 0.100813 0.259303
C366  C     C_3   0.129949 0.474379 0.907005 -0.401838
C367  C     C_3   0.179928 0.542866 0.906498 -0.365228
C368  C     C_3   0.248422 0.531422 0.923112 -0.839827
H362  H     H_    0.232789 0.521051 0.943721 0.267926
H363  H     H_    0.280592 0.483937 0.915673 0.271087
H364  H     H_    0.283508 0.581670 0.922304 0.254256
H365  H     H_    0.197397 0.555606 0.886259 0.229764
H366  H     H_    0.149414 0.591187 0.914149 0.257613
H367  H     H_    0.117104 0.461350 0.927614 0.221867
H368  H     H_    0.159836 0.425104 0.899942 0.195276
C369  C     C_2   0.096027 0.400492 0.649886 0.410448
H369  H     H_    0.151173 0.388136 0.643335 0.058214
O101  O     O_2   0.070693 0.363920 0.667783 -0.601838
C370  C     C_2   0.098325 0.600551 0.349148 0.472147
H370  H     H_    0.154885 0.610460 0.354757 0.093231
O102  O     O_2   0.072173 0.638307 0.331792 -0.565799
C371  C     C_2   0.634947 0.978727 0.651869 0.403789
H371  H     H_    0.633716 0.961475 0.672059 0.119930
O103  O     O_2   0.694686 0.994107 0.642514 -0.599658
C372  C     C_2   0.362801 0.027456 0.347447 0.392520
H372  H     H_    0.322320 0.066022 0.354638 0.089358
O104  O     O_2   0.349378 0.994893 0.327173 -0.618620
C373  C     C_2   0.900986 0.599268 0.651145 0.416292
H373  H     H_    0.844409 0.608701 0.645571 0.054874
O105  O     O_2   0.926896 0.637022 0.668600 -0.599897
C374  C     C_2   0.902505 0.401852 0.350205 0.476327
H374  H     H_    0.845778 0.392273 0.355720 0.091392
O106  O     O_2   0.929619 0.362380 0.333523 -0.559829
C375  C     C_2   0.362747 0.018185 0.653342 0.405727
H375  H     H_    0.364911 0.036842 0.673355 0.120192
O107  O     O_2   0.303142 0.998977 0.644813 -0.598014
C376  C     C_2   0.635049 0.972435 0.348762 0.398477
H376  H     H_    0.674841 0.933774 0.356353 0.090046
O108  O     O_2   0.650181 0.005019 0.328619 -0.615834
C377  C     C_2   0.596095 0.898946 0.150589 0.409032
H377  H     H_    0.651550 0.886721 0.144328 0.057468
O109  O     O_2   0.570327 0.862807 0.168519 -0.602719
C378  C     C_2   0.597892 0.100415 0.849351 0.475370
H378  H     H_    0.654332 0.110956 0.854967 0.093210
O110  O     O_2   0.571193 0.138269 0.832127 -0.565117
C379  C     C_2   0.132988 0.476500 0.150889 0.401432
H379  H     H_    0.132507 0.459341 0.171088 0.122895
O111  O     O_2   0.192512 0.490582 0.141121 -0.597801
C380  C     C_2   0.862184 0.529943 0.846667 0.392925
H380  H     H_    0.822249 0.569605 0.853488 0.089133
O112  O     O_2   0.848897 0.496944 0.826468 -0.619709
C381  C     C_2   0.401479 0.098143 0.150550 0.417922
H381  H     H_    0.345089 0.107659 0.144764 0.055563
O113  O     O_2   0.427091 0.136251 0.167964 -0.597546
C382  C     C_2   0.402322 0.901459 0.850079 0.475256
H382  H     H_    0.345632 0.891984 0.855662 0.091347
O114  O     O_2   0.429051 0.862275 0.833235 -0.560422
C383  C     C_2   0.861579 0.520474 0.154254 0.408250
H383  H     H_    0.865019 0.538004 0.174372 0.118382
O115  O     O_2   0.801169 0.503089 0.145961 -0.599998
C384  C     C_2   0.133248 0.470033 0.849592 0.402544
H384  H     H_    0.172033 0.430786 0.857458 0.090689
O116  O     O_2   0.149828 0.502149 0.829496 -0.613692

loop_
_geom_bond_atom_site_label_1
_geom_bond_atom_site_label_2
_ccdc_geom_bond_type
C78   O26   A    
C347  H315  S    
C237  H99   S    
C11   C171  A    
C216  H50   S    
C37   C69   A    
C24   C184  A    
C18   C21   A    
C326  H265  S    
C235  C236  S    
C235  H105  S    
C9    C169  A    
C353  H327  S    
C257  C258  S    
C151  C303  S    
C279  H197  S    
C102  C125  S    
C117  C133  S    
C42   C58   A    
C317  O97   D    
C210  H36   S    
C217  H62   S    
C12   C172  A    
C276  H190  S    
C76   O24   A    
C270  H178  S    
C13   C173  A    
C79   C121  S    
C45   C57   A    
C300  H236  S    
C287  H222  S    
C194  H4    S    
C85   O33   A    
O41   Zn1   S    
C307  O87   D    
C19   C315  S    
C223  C224  S    
C228  H79   S    
C221  H68   S    
C98   C114  S    
C130  C146  S    
C321  H262  S    
C153  C173  A    
C87   O35   A    
C294  H230  S    
C256  H153  S    
C352  C353  S    
C283  C284  S    
C114  C137  S    
C349  H323  S    
C331  C332  S    
C222  H66   S    
C153  O53   S    
C157  C169  A    
C5    O17   A    
C223  H77   S    
C256  C257  S    
C195  H2    S    
C334  H289  S    
C206  C207  S    
C361  H352  S    
C164  C184  A    
C54   C382  S    
C259  H161  S    
C129  C145  S    
C33   C69   A    
C160  N4    A    
C225  H73   S    
C314  O94   D    
C35   C71   A    
C78   O38   A    
C230  H89   S    
C345  C346  S    
C257  H152  S    
C114  C130  S    
C97   C265  S    
C18   C314  S    
C108  C124  S    
C47   C375  S    
C168  O68   S    
C136  C152  S    
C318  O98   D    
C176  C188  A    
C96   C135  S    
C312  O92   D    
C358  H344  S    
C356  H335  S    
C34   C50   A    
C163  C183  A    
C323  H257  S    
C266  H173  S    
C341  H299  S    
C287  C288  S    
C67   N8    S    
C25   C41   A    
C264  H163  S    
C263  C264  S    
C333  H290  S    
C80   C122  S    
C260  C261  S    
C240  H106  S    
C4    C61   S    
C28   C44   A    
C199  H21   S    
C211  H48   S    
C336  H298  S    
C346  C347  S    
C144  C296  S    
C204  H24   S    
C31   C67   A    
C354  C355  S    
C166  N6    A    
C23   C319  S    
C366  H368  S    
C244  H126  S    
C8    C57   S    
C240  H108  S    
C261  H156  S    
C315  O95   D    
C311  H247  S    
C235  H104  S    
C91   C247  S    
C282  H206  S    
C5    O13   A    
C370  H370  S    
C95   C259  S    
C200  C201  S    
C166  O66   S    
C112  C151  S    
C265  H174  S    
C254  H144  S    
C335  H286  S    
C86   O34   A    
C345  H318  S    
C26   C324  S    
C128  C144  S    
C384  O116  D    
C42   C370  S    
C22   C318  S    
C197  C198  S    
C249  H128  S    
C43   C371  S    
C216  H52   S    
C284  H214  S    
C35   C51   A    
C246  H122  S    
C157  N1    A    
C320  O100  D    
C225  H71   S    
C19   C179  A    
C283  H217  S    
O48   Zn16  S    
C210  H38   S    
C355  C356  S    
C163  O63   S    
C276  H192  S    
C17   C177  A    
C303  O83   D    
C99   C147  S    
C358  C359  S    
C159  O59   S    
C33   C345  S    
O20   Zn5   S    
O44   Zn4   S    
C97   C145  S    
C49   C377  S    
C339  H304  S    
C306  H242  S    
C8    O16   A    
C382  H382  S    
C220  C221  S    
C103  C283  S    
C87   O47   A    
C286  H223  S    
C293  H229  S    
C162  N6    A    
C108  C202  S    
O10   Zn11  S    
C73   O21   A    
C116  C226  S    
C3    O7    A    
C281  C282  S    
C104  C152  S    
C377  O109  D    
C117  C142  S    
C323  H259  S    
C351  H332  S    
C252  H135  S    
C25   C321  S    
C229  C230  S    
C233  C234  S    
C107  C148  S    
O3    Zn14  S    
C274  H195  S    
O4    Zn9   S    
C70   N1    S    
C105  C146  S    
C164  O64   S    
O49   Zn9   S    
C251  H137  S    
C102  C280  S    
C219  H59   S    
C375  O107  D    
O24   Zn13  S    
O52   Zn12  S    
C241  C242  S    
C84   O32   A    
C316  O96   D    
C262  H167  S    
C304  H240  S    
C86   O46   A    
C47   C59   A    
C360  C361  S    
C74   O42   A    
C161  O61   S    
C207  H29   S    
C268  H182  S    
C179  C191  A    
C302  O82   D    
C248  C249  S    
C236  C237  S    
C279  H199  S    
C205  C206  S    
C44   C372  S    
C182  C190  A    
C209  H39   S    
C201  H16   S    
O22   Zn11  S    
C246  H121  S    
C229  H90   S    
C218  H60   S    
C347  H313  S    
O1    Zn5   S    
C381  O113  D    
C241  H119  S    
C101  C126  S    
C267  H171  S    
C34   C348  S    
C313  H249  S    
C366  H367  S    
C143  C295  S    
C165  C177  A    
C375  H375  S    
C106  C196  S    
C208  H41   S    
C376  H376  S    
C383  H383  S    
C236  H103  S    
C277  C278  S    
C232  H98   S    
C197  H12   S    
C237  H100  S    
C226  H83   S    
C215  H53   S    
C110  C208  S    
C272  H187  S    
C247  H133  S    
C336  H297  S    
C310  H246  S    
C28   C68   A    
C272  C273  S    
C319  O99   D    
O1    Zn12  S    
C115  C223  S    
C344  H306  S    
C135  C151  S    
C354  H340  S    
C81   C131  S    
O3    Zn10  S    
C328  H274  S    
C123  C139  S    
O4    Zn13  S    
C141  C293  S    
C338  H292  S    
C277  H203  S    
O25   Zn16  S    
C93   C253  S    
C117  C229  S    
C209  H40   S    
C342  H312  S    
C299  H235  S    
C218  C219  S    
C90   C129  S    
C53   C61   A    
C92   C108  S    
C157  O57   S    
C77   O25   A    
C291  H227  S    
C125  C141  S    
C245  C246  S    
C362  H349  S    
C55   C63   A    
C244  H125  S    
C56   C64   A    
C131  C147  S    
C2    O6    A    
C233  H96   S    
C330  H284  S    
C255  H143  S    
C36   C52   A    
C43   C59   A    
O23   Zn14  S    
C37   C53   A    
C163  N7    A    
C369  O101  D    
C364  H359  S    
C265  C266  S    
C46   C58   A    
C85   O45   A    
C198  H9    S    
C205  H35   S    
C321  C322  S    
C367  H366  S    
C191  C192  A    
C200  H19   S    
C96   C262  S    
C55   C383  S    
C318  H254  S    
C363  H360  S    
C90   C138  S    
C298  O78   D    
C271  C272  S    
C278  H200  S    
C368  H363  S    
C340  H303  S    
O8    Zn9   S    
C20   C316  S    
C41   C57   A    
C154  C174  A    
C1    O9    A    
C352  H330  S    
C26   C66   A    
C280  C281  S    
C105  C121  S    
C273  H185  S    
C155  N3    A    
C349  C350  S    
C224  H74   S    
C384  H384  S    
C207  H30   S    
C9    C14   A    
C89   C241  S    
C158  C170  A    
C341  H301  S    
C238  H112  S    
C12   C308  S    
C40   C56   A    
C350  H320  S    
C281  H207  S    
O33   Zn8   S    
C105  C193  S    
O34   Zn7   S    
C208  C209  S    
C258  H149  S    
C379  O111  D    
C348  H325  S    
C292  O72   D    
C23   C183  A    
C253  C254  S    
C202  H28   S    
C88   O48   A    
C357  H347  S    
C286  C287  S    
C116  C132  S    
C20   C23   A    
C13   C309  S    
C290  H226  S    
C106  C122  S    
C324  H269  S    
C327  C328  S    
O35   Zn2   S    
C112  C214  S    
O1    Zn1   S    
C115  C140  S    
C140  C292  S    
C365  H356  S    
O3    Zn3   S    
C110  C126  S    
C29   C65   A    
O4    Zn4   S    
C254  H145  S    
C329  H272  S    
C317  H253  S    
C254  C255  S    
C359  H342  S    
O45   Zn13  S    
C308  O88   D    
C212  H46   S    
C287  H221  S    
C253  H146  S    
C262  C263  S    
C1    C64   S    
O16   Zn1   S    
C2    C63   S    
C26   C42   A    
C196  H13   S    
C288  H220  S    
C86   C136  S    
C189  C190  A    
C347  H314  S    
C246  H120  S    
C278  C279  S    
C39   C71   A    
C40   C72   A    
C104  C286  S    
C152  C304  S    
C113  C138  S    
C6    C59   S    
C82   O50   A    
C224  H75   S    
C225  H72   S    
C155  O55   S    
C344  H308  S    
C324  H270  S    
C331  H281  S    
C138  C290  S    
C270  H177  S    
C200  H18   S    
C194  H5    S    
C239  C240  S    
C338  H294  S    
C330  H283  S    
C271  H188  S    
C87   C129  S    
C109  C150  S    
C333  H291  S    
C22   C182  A    
O38   Zn6   S    
C297  H233  S    
C213  H45   S    
C206  H33   S    
C359  H341  S    
C147  C299  S    
C83   O31   A    
C374  O106  D    
C95   C136  S    
C326  H266  S    
C45   C373  S    
C345  H319  S    
C275  H194  S    
C231  H86   S    
C161  C181  A    
C372  H372  S    
C285  H213  S    
O51   Zn11  S    
C222  H65   S    
C332  H278  S    
C27   C67   A    
C239  H109  S    
C203  H26   S    
C65   N6    S    
C155  C175  A    
C244  C245  S    
C223  H76   S    
C360  H354  S    
O4    Zn8   S    
C89   C105  S    
C255  H141  S    
C52   C380  S    
C88   C130  S    
O21   Zn12  S    
C31   C47   A    
C263  H165  S    
C322  C323  S    
C263  H166  S    
C245  H123  S    
C36   C72   A    
C93   C109  S    
C99   C124  S    
C301  O81   D    
C355  H337  S    
C74   C124  S    
C38   C70   A    
C95   C143  S    
C380  H380  S    
C322  H261  S    
C76   C126  S    
C71   N4    S    
C336  C337  S    
C100  C116  S    
C107  C123  S    
C30   C336  S    
C209  C210  S    
C118  C141  S    
C78   C128  S    
C111  C152  S    
C351  C352  S    
C296  H232  S    
C368  H362  S    
C379  H379  S    
C358  H345  S    
C356  H334  S    
C378  H378  S    
C350  H322  S    
C214  H56   S    
C373  O105  D    
C84   C134  S    
C158  N2    A    
C106  C145  S    
C159  C171  A    
C234  H93   S    
C68   N7    S    
O50   Zn10  S    
C156  N4    A    
C332  H280  S    
O39   Zn7   S    
C305  O85   D    
C99   C115  S    
C264  H162  S    
C178  C190  A    
C3    C62   S    
O30   Zn3   S    
C162  O62   S    
C33   C49   A    
C248  H130  S    
C260  H158  S    
C94   C133  S    
C199  H20   S    
C31   C339  S    
C193  C194  S    
C48   C376  S    
C38   C360  S    
C198  H8    S    
C283  H216  S    
C204  H23   S    
C366  C367  S    
C269  H179  S    
C103  C119  S    
O47   Zn15  S    
C6    O18   A    
C181  C189  A    
O2    Zn6   S    
C39   C55   A    
C295  H231  S    
C282  H205  S    
C370  O102  D    
C193  H7    S    
O2    Zn15  S    
C300  O80   D    
C348  C349  S    
C184  C192  A    
C4    O8    A    
C166  C178  A    
C145  C297  S    
C250  H140  S    
C309  O89   D    
C34   C70   A    
C109  C205  S    
C311  O91   D    
C5    C60   S    
C103  C151  S    
C325  H268  S    
C116  C139  S    
C83   O51   A    
C220  H70   S    
C16   C176  A    
C240  H107  S    
C82   O30   A    
C202  C203  S    
C216  H51   S    
C284  H215  S    
C77   O37   A    
C119  C144  S    
C32   C48   A    
C120  C143  S    
C291  O71   D    
C98   C121  S    
C346  H316  S    
O1    Zn16  S    
C142  C294  S    
C251  C252  S    
C210  H37   S    
C30   C46   A    
C217  H63   S    
C276  H191  S    
O37   Zn5   S    
C49   C61   A    
C364  C365  S    
C94   C142  S    
C201  H15   S    
C137  C289  S    
C94   C256  S    
O26   Zn15  S    
C51   C63   A    
C367  C368  S    
C90   C106  S    
C306  O86   D    
C52   C64   A    
C228  H80   S    
C259  H160  S    
C330  C331  S    
C133  C149  S    
C9    C305  S    
C221  H67   S    
C261  H157  S    
C115  C131  S    
C91   C132  S    
C54   C62   A    
C340  C341  S    
C288  H218  S    
C94   C110  S    
C119  C135  S    
C89   C130  S    
C243  H113  S    
O31   Zn6   S    
C183  C191  A    
C256  H154  S    
C120  C136  S    
C268  H181  S    
C159  N3    A    
C285  H211  S    
C323  H258  S    
C333  C334  S    
C91   C107  S    
C293  O73   D    
C11   C16   A    
C75   C125  S    
C371  H371  S    
C6    O14   A    
C12   C15   A    
C324  C325  S    
C173  C185  A    
O14   Zn7   S    
C170  C186  A    
C113  C217  S    
C259  C260  S    
C195  H3    S    
C251  H138  S    
C334  H288  S    
C219  H58   S    
C369  H369  S    
C10   C306  S    
C361  H351  S    
C227  C228  S    
C353  H329  S    
C122  C138  S    
C304  O84   D    
C102  C150  S    
O7    Zn10  S    
C91   C139  S    
C314  H250  S    
C120  C238  S    
C167  C179  A    
C89   C137  S    
C230  H88   S    
C279  H198  S    
O5    Zn16  S    
C327  H277  S    
C257  H151  S    
C53   C381  S    
O6    Zn15  S    
C271  H189  S    
C227  H82   S    
C337  H296  S    
C363  C364  S    
C218  H61   S    
C213  H43   S    
C93   C141  S    
C275  C276  S    
C81   O29   A    
C312  H248  S    
C154  O54   S    
C356  H336  S    
C355  H338  S    
C267  H170  S    
C156  C176  A    
C245  H124  S    
C168  N8    A    
C273  H184  S    
C266  H172  S    
C124  C140  S    
C32   C342  S    
O18   Zn3   S    
C46   C374  S    
C227  H81   S    
C16   C312  S    
C264  H164  S    
C376  O108  D    
C226  C227  S    
C81   O49   A    
C212  H47   S    
C221  C222  S    
C15   C175  A    
C10   C170  A    
O17   Zn4   S    
C74   O22   A    
C215  H54   S    
C17   C22   A    
C161  N5    A    
C211  H49   S    
C100  C123  S    
C247  H132  S    
C201  H17   S    
C310  O90   D    
C224  C225  S    
O2    Zn2   S    
C243  H115  S    
C29   C333  S    
C187  C188  A    
C14   C174  A    
C73   C123  S    
C99   C271  S    
C361  C362  S    
C167  O67   S    
C354  H339  S    
C185  C186  A    
C35   C351  S    
C104  C127  S    
C44   C60   A    
C275  H193  S    
C328  H275  S    
C241  H118  S    
C69   N2    S    
C273  H183  S    
C126  C142  S    
C265  H175  S    
O46   Zn14  S    
C335  H287  S    
O15   Zn2   S    
C334  C335  S    
O2    Zn11  S    
O43   Zn3   S    
C112  C128  S    
C153  N1    A    
C342  H311  S    
C77   C127  S    
C27   C43   A    
C249  H129  S    
C73   O41   A    
C280  H210  S    
C382  O114  D    
C199  C200  S    
C29   C45   A    
C25   C65   A    
C230  C231  S    
C203  C204  S    
C158  O58   S    
C217  C218  S    
C150  C302  S    
C320  H256  S    
C228  H78   S    
C377  H377  S    
C362  H348  S    
C7    O15   A    
C164  N8    A    
C104  C120  S    
C321  H263  S    
C92   C250  S    
C315  H251  S    
C365  H355  S    
C242  C243  S    
C337  C338  S    
C84   O52   A    
C56   C384  S    
C326  H264  S    
C205  H34   S    
C307  H243  S    
C79   O39   A    
C339  H305  S    
C274  C275  S    
C110  C149  S    
C11   C307  S    
C37   C357  S    
C72   N3    S    
C243  H114  S    
C234  H92   S    
C118  C232  S    
C261  H155  S    
C20   C180  A    
C278  H201  S    
C357  C358  S    
C107  C199  S    
C100  C274  S    
C21   C181  A    
C286  H224  S    
C96   C112  S    
C339  C340  S    
C252  H134  S    
C113  C129  S    
C119  C235  S    
C352  H331  S    
C351  H333  S    
O42   Zn2   S    
C76   O44   A    
C100  C148  S    
C325  H267  S    
C162  C182  A    
C252  H136  S    
C165  N5    A    
C194  C195  S    
O29   Zn4   S    
C274  H196  S    
C341  H300  S    
C238  H111  S    
C121  C137  S    
C267  H169  S    
C134  C150  S    
C160  O60   S    
C51   C379  S    
C374  H374  S    
C24   C320  S    
C258  H148  S    
C101  C117  S    
O36   Zn1   S    
C262  H168  S    
C202  H27   S    
C316  H252  S    
C357  H346  S    
C96   C144  S    
C214  C215  S    
C232  H97   S    
C302  H238  S    
C381  H381  S    
C38   C54   A    
C196  C197  S    
C268  C269  S    
O13   Zn8   S    
C111  C211  S    
C229  H91   S    
C50   C378  S    
C7    C58   S    
C102  C118  S    
C32   C68   A    
C108  C147  S    
C7    O19   A    
C21   C317  S    
C75   O23   A    
C289  O69   D    
C165  O65   S    
C204  H22   S    
C277  H202  S    
C79   O27   A    
C208  H42   S    
O27   Zn10  S    
C378  O110  D    
C48   C60   A    
C349  H324  S    
C236  H102  S    
C288  H219  S    
C160  C172  A    
C197  H11   S    
C88   O36   A    
C237  H101  S    
C226  H84   S    
C2    O10   A    
C299  O79   D    
C177  C189  A    
C284  C285  S    
C272  H186  S    
C132  C148  S    
C249  H127  S    
C346  H317  S    
C92   C131  S    
C101  C277  S    
C269  C270  S    
C297  O77   D    
C255  H142  S    
C93   C134  S    
C180  C192  A    
C250  C251  S    
C344  H307  S    
C325  C326  S    
C36   C354  S    
C127  C143  S    
C148  C300  S    
C98   C146  S    
C3    O11   A    
O3    Zn7   S    
C270  H176  S    
C175  C187  A    
O19   Zn6   S    
C80   O28   A    
O40   Zn8   S    
C290  O70   D    
C338  H293  S    
C231  H87   S    
C15   C311  S    
C97   C122  S    
C8    O20   A    
C168  C180  A    
C213  H44   S    
C219  H57   S    
O12   Zn13  S    
C313  O93   D    
C232  C233  S    
C231  H85   S    
C362  H350  S    
C295  O75   D    
C39   C363  S    
C247  C248  S    
C331  H282  S    
O11   Zn14  S    
C233  H95   S    
C372  O104  D    
C103  C128  S    
C285  H212  S    
C18   C178  A    
C222  H64   S    
C30   C66   A    
C239  H110  S    
C322  H260  S    
C85   C135  S    
C109  C125  S    
C371  O103  D    
C360  H353  S    
C282  H204  S    
C28   C330  S    
C281  H208  S    
C364  H358  S    
C195  H1    S    
C111  C127  S    
C50   C62   A    
C198  H10   S    
C95   C111  S    
C367  H365  S    
C97   C113  S    
C342  C343  S    
C363  H361  S    
C335  H285  S    
C234  H94   S    
C1    O5    A    
C298  H234  S    
C303  H239  S    
C301  H237  S    
C327  H276  S    
C368  H364  S    
C340  H302  S    
C383  O115  D    
C329  H271  S    
C343  H309  S    
C380  O112  D    
C14   C310  S    
C308  H244  S    
C19   C24   A    
O32   Zn5   S    
C167  N7    A    
C41   C369  S    
C280  H209  S    
C343  C344  S    
C10   C13   A    
C118  C134  S    
C203  H25   S    
C207  H31   S    
C296  O76   D    
C289  H225  S    
C242  H117  S    
O28   Zn9   S    
C350  H321  S    
O9    Zn12  S    
C214  H55   S    
C373  H373  S    
C114  C220  S    
C4    O12   A    
C171  C187  A    
C294  O74   D    
C98   C268  S    
C258  H150  S    
C348  H326  S    
C80   O40   A    
C146  C298  S    
C253  H147  S    
C169  C185  A    
C332  H279  S    
C27   C327  S    
C17   C313  S    
C305  H241  S    
C174  C186  A    
C343  H310  S    
C211  C212  S    
C40   C366  S    
C149  C301  S    
C212  C213  S    
C337  H295  S    
C172  C188  A    
C248  H131  S    
C101  C149  S    
C215  C216  S    
C353  H328  S    
C319  H255  S    
C292  H228  S    
C365  H357  S    
C269  H180  S    
C83   C133  S    
C66   N5    S    
C75   O43   A    
C238  C239  S    
C154  N2    A    
C242  H116  S    
C329  H273  S    
C139  C291  S    
C328  C329  S    
C359  H343  S    
C193  H6    S    
C206  H32   S    
C266  C267  S    
C90   C244  S    
C250  H139  S    
C309  H245  S    
C82   C132  S    
C260  H159  S    
C156  O56   S    
C220  H69   S    
C196  H14   S    
C92   C140  S    
