data_mof_unit_4242.cif
_audit_creation_date              2013-03-05T15:41:27-0500
_audit_creation_method            fapswitch 2.2
_symmetry_space_group_name_H-M    P1
_symmetry_Int_Tables_number       1
_space_group_crystal_system       triclinic
_cell_length_a                    18.479386
_cell_length_b                    18.53371
_cell_length_c                    34.365719
_cell_angle_alpha                 89.847705
_cell_angle_beta                  89.849131
_cell_angle_gamma                 90.050834
_cell_volume                      11769.8823479

loop_
_atom_site_label
_atom_site_type_symbol
_atom_site_description
_atom_site_fract_x
_atom_site_fract_y
_atom_site_fract_z
_atom_type_partial_charge
Zn1   Zn    Zn3+2 0.414160 0.000000 0.467250 1.005057
Zn2   Zn    Zn3+2 1.000000 0.414160 0.467250 1.020742
Zn3   Zn    Zn3+2 0.585840 0.000000 0.467250 1.008489
Zn4   Zn    Zn3+2 1.000000 0.585840 0.467250 1.011237
Zn5   Zn    Zn3+2 0.914160 0.500000 0.967250 1.001105
Zn6   Zn    Zn3+2 0.500000 0.914160 0.967250 1.005465
Zn7   Zn    Zn3+2 0.085840 0.500000 0.967250 1.001060
Zn8   Zn    Zn3+2 0.500000 0.085840 0.967250 1.004274
Zn9   Zn    Zn3+2 0.500000 0.085780 0.532750 0.994399
Zn10  Zn    Zn3+2 0.914220 0.500000 0.532750 1.002871
Zn11  Zn    Zn3+2 0.500000 0.914220 0.532750 0.993884
Zn12  Zn    Zn3+2 0.085780 0.500000 0.532750 0.984627
Zn13  Zn    Zn3+2 0.000000 0.585780 0.032750 0.996616
Zn14  Zn    Zn3+2 0.414220 0.000000 0.032750 1.012982
Zn15  Zn    Zn3+2 0.000000 0.414220 0.032750 0.991343
Zn16  Zn    Zn3+2 0.585780 0.000000 0.032750 0.994649
O1    O     O_3   0.500000 0.000000 0.500000 -0.496330
O2    O     O_3   1.000000 0.500000 0.500000 -0.502121
O3    O     O_3   0.000000 0.500000 0.000000 -0.496275
O4    O     O_3   0.500000 0.000000 0.000000 -0.498467
O5    O     O_R   0.500000 0.939870 0.587440 -0.618893
O6    O     O_R   0.060130 0.500000 0.587440 -0.629770
O7    O     O_R   0.500000 0.060130 0.587440 -0.613211
O8    O     O_R   0.939870 0.500000 0.587440 -0.615528
O9    O     O_R   0.000000 0.439870 0.087440 -0.622217
O10   O     O_R   0.560130 0.000000 0.087440 -0.628732
O11   O     O_R   0.000000 0.560130 0.087440 -0.609445
O12   O     O_R   0.439870 0.000000 0.087440 -0.609982
O13   O     O_R   0.439940 0.000000 0.412560 -0.643671
O14   O     O_R   1.000000 0.439940 0.412560 -0.628621
O15   O     O_R   0.560060 0.000000 0.412560 -0.630946
O16   O     O_R   1.000000 0.560060 0.412560 -0.620562
O17   O     O_R   0.939940 0.500000 0.912560 -0.641829
O18   O     O_R   0.500000 0.939940 0.912560 -0.659532
O19   O     O_R   0.060060 0.500000 0.912560 -0.637215
O20   O     O_R   0.500000 0.060060 0.912560 -0.639701
O21   O     O_R   0.415450 0.144560 0.522930 -0.668606
O22   O     O_R   0.855440 0.415450 0.522930 -0.639101
O23   O     O_R   0.584550 0.855440 0.522930 -0.672342
O24   O     O_R   0.144560 0.584550 0.522930 -0.672469
O25   O     O_R   0.584550 0.144560 0.522930 -0.644855
O26   O     O_R   0.144560 0.415450 0.522930 -0.643666
O27   O     O_R   0.415450 0.855440 0.522930 -0.645589
O28   O     O_R   0.855440 0.584550 0.522930 -0.644636
O29   O     O_R   0.915450 0.644560 0.022930 -0.668758
O30   O     O_R   0.355440 0.915450 0.022930 -0.636135
O31   O     O_R   0.084550 0.355440 0.022930 -0.664454
O32   O     O_R   0.644560 0.084550 0.022930 -0.672493
O33   O     O_R   0.084550 0.644560 0.022930 -0.639037
O34   O     O_R   0.644560 0.915450 0.022930 -0.645756
O35   O     O_R   0.915450 0.355440 0.022930 -0.645334
O36   O     O_R   0.355440 0.084550 0.022930 -0.649132
O37   O     O_R   0.644640 0.915430 0.477080 -0.619092
O38   O     O_R   0.084570 0.644640 0.477080 -0.606252
O39   O     O_R   0.355360 0.084570 0.477080 -0.634780
O40   O     O_R   0.915430 0.355360 0.477080 -0.600139
O41   O     O_R   0.355360 0.915430 0.477080 -0.615308
O42   O     O_R   0.915430 0.644640 0.477080 -0.644201
O43   O     O_R   0.644640 0.084570 0.477080 -0.624880
O44   O     O_R   0.084570 0.355360 0.477080 -0.637496
O45   O     O_R   0.144640 0.415430 0.977080 -0.606841
O46   O     O_R   0.584570 0.144640 0.977080 -0.632543
O47   O     O_R   0.855360 0.584570 0.977080 -0.629801
O48   O     O_R   0.415430 0.855360 0.977080 -0.640903
O49   O     O_R   0.855360 0.415430 0.977080 -0.621078
O50   O     O_R   0.415430 0.144640 0.977080 -0.616638
O51   O     O_R   0.144640 0.584570 0.977080 -0.645372
O52   O     O_R   0.584570 0.855360 0.977080 -0.612781
C1    C     C_R   0.499982 0.999853 0.605658 0.941280
C2    C     C_R   0.999927 0.500091 0.605708 0.951359
C3    C     C_R   0.000044 0.499912 0.105688 0.935734
C4    C     C_R   0.499901 0.000203 0.105665 0.950059
C5    C     C_R   0.500075 0.999975 0.394319 0.969025
C6    C     C_R   0.000049 0.500169 0.394385 0.958774
C7    C     C_R   0.000141 0.500094 0.894348 0.972777
C8    C     C_R   0.499785 0.000220 0.894372 0.973552
C9    C     C_R   0.359630 0.137173 0.500738 0.787102
C10   C     C_R   0.862842 0.359897 0.501049 0.793567
C11   C     C_R   0.640670 0.862887 0.500867 0.790008
C12   C     C_R   0.136513 0.641253 0.501448 0.769631
C13   C     C_R   0.635974 0.141438 0.497831 0.748019
C14   C     C_R   0.141171 0.363310 0.498716 0.771845
C15   C     C_R   0.363552 0.858722 0.498422 0.780794
C16   C     C_R   0.858694 0.636721 0.498641 0.767243
C17   C     C_R   0.859518 0.637136 0.000824 0.785169
C18   C     C_R   0.362451 0.860125 0.000620 0.786657
C19   C     C_R   0.141184 0.363729 0.001510 0.788820
C20   C     C_R   0.637328 0.140363 0.000752 0.789621
C21   C     C_R   0.135701 0.641719 0.997218 0.741982
C22   C     C_R   0.641136 0.863308 0.998613 0.790591
C23   C     C_R   0.863644 0.358539 0.998397 0.781954
C24   C     C_R   0.358671 0.136413 0.998388 0.772418
C25   C     C_2   0.194522 0.748340 0.472835 0.359169
C26   C     C_2   0.263622 0.205236 0.468789 0.360002
C27   C     C_2   0.811470 0.244881 0.478467 0.316622
C28   C     C_2   0.739510 0.797827 0.469148 0.372048
C29   C     C_2   0.797653 0.741564 0.468683 0.329603
C30   C     C_2   0.750659 0.192156 0.475317 0.299732
C31   C     C_2   0.204310 0.260237 0.468443 0.337166
C32   C     C_2   0.254740 0.802543 0.471116 0.332208
C33   C     C_2   0.704721 0.237130 0.968669 0.358520
C34   C     C_2   0.762263 0.703934 0.969068 0.358019
C35   C     C_2   0.310137 0.747466 0.974807 0.277655
C36   C     C_2   0.251466 0.308319 0.974908 0.343839
C37   C     C_2   0.304316 0.247091 0.972602 0.324593
C38   C     C_2   0.249802 0.693168 0.972238 0.357374
C39   C     C_2   0.702706 0.758796 0.968713 0.354046
C40   C     C_2   0.759849 0.296426 0.968149 0.353430
C41   C     C_2   0.184430 0.705632 0.504896 0.243667
C42   C     C_2   0.296291 0.185862 0.502829 0.241985
C43   C     C_2   0.812490 0.299156 0.505089 0.254930
C44   C     C_2   0.704279 0.814193 0.503008 0.246793
C45   C     C_2   0.794038 0.684002 0.493289 0.240443
C46   C     C_2   0.685146 0.204004 0.491766 0.238241
C47   C     C_2   0.205996 0.316353 0.493738 0.255550
C48   C     C_2   0.314585 0.795569 0.493575 0.257274
C49   C     C_2   0.686704 0.203281 0.002691 0.245131
C50   C     C_2   0.796055 0.685876 0.003007 0.238758
C51   C     C_2   0.309341 0.801263 0.002079 0.274944
C52   C     C_2   0.205261 0.316324 0.005764 0.255569
C53   C     C_2   0.295713 0.185599 0.993618 0.258862
C54   C     C_2   0.183330 0.705023 0.988273 0.226620
C55   C     C_2   0.705787 0.816355 0.993084 0.252816
C56   C     C_2   0.817418 0.293392 0.992510 0.251328
C57   C     C_R   0.961299 0.553156 0.668339 0.252180
C58   C     C_R   0.449232 0.957272 0.668240 0.249752
C59   C     C_R   0.039971 0.447009 0.668011 0.271443
C60   C     C_R   0.551852 0.040762 0.667988 0.257966
C61   C     C_R   0.459717 0.052633 0.168037 0.250792
C62   C     C_R   0.950015 0.456965 0.168435 0.255559
C63   C     C_R   0.539528 0.947428 0.167987 0.270938
C64   C     C_R   0.050413 0.543208 0.167990 0.266914
C65   C     C_R   0.000011 0.499874 0.648071 -0.307285
C66   C     C_R   0.500270 0.999386 0.647982 -0.313831
C67   C     C_R   0.499693 0.000116 0.147947 -0.305524
C68   C     C_R   0.000279 0.499845 0.148069 -0.314193
C69   C     C_R   0.034942 0.442637 0.708956 -0.130526
C70   C     C_R   0.557093 0.034082 0.708792 -0.137695
C71   C     C_R   0.969499 0.558656 0.709050 -0.134059
C72   C     C_R   0.443409 0.964417 0.708983 -0.134482
C73   C     C_R   0.533152 0.942424 0.208816 -0.131027
C74   C     C_R   0.055453 0.537744 0.208863 -0.137692
C75   C     C_R   0.466408 0.057621 0.208836 -0.135883
C76   C     C_R   0.944262 0.463954 0.209197 -0.134960
C77   C     C_R   0.002749 0.500784 0.729533 -0.046062
C78   C     C_R   0.499939 0.999649 0.729464 -0.041759
C79   C     C_R   0.499940 0.000035 0.229390 -0.043374
C80   C     C_R   0.999723 0.501142 0.229573 -0.045238
C81   C     C_R   0.060022 0.381519 0.729844 0.226018
C82   C     C_R   0.618117 0.059770 0.729421 0.231876
C83   C     C_R   0.947146 0.620849 0.729817 0.206542
C84   C     C_R   0.382186 0.938789 0.729704 0.221320
C85   C     C_R   0.557927 0.881128 0.229544 0.226338
C86   C     C_R   0.115043 0.566686 0.229545 0.236723
C87   C     C_R   0.441606 0.118804 0.229579 0.224930
C88   C     C_R   0.884162 0.436024 0.230091 0.225552
C89   C     C_R   0.555911 0.880265 0.270215 0.401913
C90   C     C_R   0.116029 0.564267 0.270228 0.400707
C91   C     C_R   0.444329 0.119650 0.270233 0.405131
C92   C     C_R   0.882712 0.439519 0.270722 0.403025
C93   C     C_R   0.058416 0.381056 0.770583 0.401518
C94   C     C_R   0.619182 0.056740 0.770069 0.406197
C95   C     C_R   0.951747 0.622059 0.770501 0.432133
C96   C     C_R   0.379542 0.944289 0.770241 0.404207
C97   C     C_R   0.531988 0.941598 0.291063 -0.127473
C98   C     C_R   0.055995 0.536768 0.291126 -0.138365
C99   C     C_R   0.468237 0.058229 0.291050 -0.124035
C100  C     C_R   0.942916 0.466510 0.291357 -0.124731
C101  C     C_R   0.034556 0.442450 0.791312 -0.129930
C102  C     C_R   0.557718 0.032517 0.791019 -0.128909
C103  C     C_R   0.972030 0.559439 0.791101 -0.109114
C104  C     C_R   0.440288 0.969362 0.791252 -0.130431
C105  C     C_R   0.500078 0.999957 0.270512 -0.093149
C106  C     C_R   0.999543 0.501511 0.270689 -0.087453
C107  C     C_R   0.003200 0.500868 0.770647 -0.096285
C108  C     C_R   0.499389 0.000345 0.770606 -0.094689
C109  C     C_R   0.536586 0.944900 0.332010 0.235270
C110  C     C_R   0.052551 0.540816 0.332057 0.233282
C111  C     C_R   0.463522 0.054830 0.331973 0.240998
C112  C     C_R   0.946487 0.461819 0.332236 0.235901
C113  C     C_R   0.038370 0.445703 0.832294 0.220336
C114  C     C_R   0.554504 0.037000 0.831939 0.232440
C115  C     C_R   0.964683 0.555343 0.831839 0.233861
C116  C     C_R   0.442474 0.966556 0.832322 0.250037
C117  C     C_R   0.500178 0.999960 0.352022 -0.322997
C118  C     C_R   0.999790 0.500805 0.352147 -0.321098
C119  C     C_R   0.000849 0.500381 0.852121 -0.331897
C120  C     C_R   0.498992 0.001095 0.852100 -0.320610
O53   O     O_3   0.148704 0.742340 0.440868 -0.609924
C121  C     C_3   0.099043 0.801097 0.439862 0.079874
H1    H     H_    0.076592 0.804102 0.409941 0.174423
H2    H     H_    0.124805 0.854111 0.445315 0.174754
C122  C     C_3   0.035828 0.791404 0.468436 -0.346489
H3    H     H_    0.003821 0.743593 0.459856 0.293240
H4    H     H_    0.056220 0.784028 0.498545 0.211745
C123  C     C_3   0.985699 0.856378 0.467976 -0.908505
H5    H     H_    0.015665 0.906480 0.475310 0.254330
H6    H     H_    0.941988 0.848269 0.489769 0.285386
H7    H     H_    0.961263 0.861621 0.438721 0.276064
O54   O     O_3   0.288081 0.177784 0.433450 -0.646888
C124  C     C_3   0.249350 0.115461 0.420174 0.221989
H8    H     H_    0.289868 0.073197 0.413213 0.216220
H9    H     H_    0.224096 0.128430 0.391855 0.156431
C125  C     C_3   0.191931 0.080740 0.447404 -0.466529
H10   H     H_    0.218047 0.059172 0.474058 0.245567
H11   H     H_    0.150832 0.120855 0.456104 0.260031
C126  C     C_3   0.152400 0.019240 0.427057 -0.918312
H12   H     H_    0.121596 0.040199 0.401728 0.263489
H13   H     H_    0.113815 0.993480 0.447651 0.262356
H14   H     H_    0.191421 0.978016 0.416850 0.291849
O55   O     O_3   0.870295 0.235286 0.453722 -0.609453
C127  C     C_3   0.912516 0.175836 0.466627 0.080512
H15   H     H_    0.931589 0.146310 0.440453 0.172045
H16   H     H_    0.882242 0.135925 0.484823 0.145947
C128  C     C_3   0.978655 0.201801 0.489278 -0.323965
H17   H     H_    0.013733 0.233812 0.469501 0.292492
H18   H     H_    0.961373 0.236522 0.513888 0.200778
C129  C     C_3   0.021584 0.138358 0.505633 -0.934631
H19   H     H_    0.989685 0.110464 0.528629 0.268495
H20   H     H_    0.072868 0.158258 0.518556 0.287986
H21   H     H_    0.034434 0.099134 0.482269 0.262718
O56   O     O_3   0.717090 0.829575 0.434368 -0.626344
C130  C     C_3   0.769842 0.877207 0.418102 0.184780
H22   H     H_    0.742500 0.908330 0.394876 0.211385
H23   H     H_    0.813168 0.847298 0.402978 0.161422
C131  C     C_3   0.802680 0.933088 0.446223 -0.418095
H24   H     H_    0.759710 0.967303 0.459005 0.274396
H25   H     H_    0.831980 0.905746 0.470188 0.223669
C132  C     C_3   0.855486 0.982606 0.424715 -0.915833
H26   H     H_    0.898669 0.951167 0.410156 0.253873
H27   H     H_    0.880781 0.020420 0.445618 0.271249
H28   H     H_    0.826645 0.013872 0.402048 0.266343
O57   O     O_3   0.854376 0.749041 0.442488 -0.673541
C133  C     C_3   0.839954 0.705880 0.409367 0.066664
H29   H     H_    0.789446 0.723777 0.394598 0.168626
H30   H     H_    0.833469 0.647972 0.417435 0.147847
C134  C     C_3   0.903143 0.712485 0.380769 -0.289503
H31   H     H_    0.909624 0.769742 0.371715 0.208740
H32   H     H_    0.953896 0.695136 0.395284 0.265955
C135  C     C_3   0.890966 0.666065 0.344744 -0.908295
H33   H     H_    0.883629 0.608681 0.353214 0.257981
H34   H     H_    0.938614 0.670215 0.325107 0.286250
H35   H     H_    0.842218 0.684655 0.328768 0.265223
O58   O     O_3   0.761147 0.132363 0.451658 -0.657417
C136  C     C_3   0.754298 0.152893 0.411905 0.128862
H36   H     H_    0.805761 0.139491 0.396834 0.176039
H37   H     H_    0.744906 0.211832 0.406960 0.161173
C137  C     C_3   0.692197 0.111029 0.393020 -0.326925
H38   H     H_    0.698707 0.052402 0.398861 0.257020
H39   H     H_    0.640008 0.129119 0.405779 0.234713
C138  C     C_3   0.689543 0.123313 0.349128 -0.922452
H40   H     H_    0.681700 0.181508 0.342565 0.268704
H41   H     H_    0.643538 0.092590 0.336618 0.269679
H42   H     H_    0.740463 0.104378 0.335295 0.277480
O59   O     O_3   0.146661 0.251949 0.442940 -0.677645
C139  C     C_3   0.167527 0.270434 0.404403 0.075026
H43   H     H_    0.155453 0.223610 0.385533 0.173337
H44   H     H_    0.225998 0.284372 0.400771 0.171215
C140  C     C_3   0.122286 0.333411 0.389446 -0.290032
H45   H     H_    0.063982 0.320682 0.393548 0.275307
H46   H     H_    0.135936 0.382893 0.406073 0.225854
C141  C     C_3   0.136685 0.347080 0.346280 -0.928948
H47   H     H_    0.194656 0.360282 0.341435 0.258272
H48   H     H_    0.103294 0.392903 0.336029 0.265051
H49   H     H_    0.122242 0.298738 0.328907 0.280674
O60   O     O_3   0.251023 0.858232 0.444076 -0.672424
C142  C     C_3   0.266432 0.831914 0.406173 0.080897
H50   H     H_    0.216231 0.835637 0.388568 0.184473
H51   H     H_    0.285090 0.774536 0.405308 0.157653
C143  C     C_3   0.324703 0.878907 0.387146 -0.306553
H52   H     H_    0.309620 0.936728 0.389690 0.244480
H53   H     H_    0.376913 0.870196 0.402400 0.237432
C144  C     C_3   0.334404 0.860492 0.344204 -0.923378
H54   H     H_    0.349795 0.802921 0.340864 0.260209
H55   H     H_    0.377720 0.894790 0.331463 0.263743
H56   H     H_    0.283440 0.870741 0.328053 0.281068
O61   O     O_3   0.676519 0.213168 0.933483 -0.645208
C145  C     C_3   0.614425 0.252467 0.920309 0.215538
H57   H     H_    0.571921 0.212380 0.913018 0.213638
H58   H     H_    0.627749 0.278203 0.892107 0.154100
C146  C     C_3   0.579371 0.308856 0.947836 -0.454116
H59   H     H_    0.555191 0.281408 0.973525 0.244661
H60   H     H_    0.619470 0.348658 0.958286 0.258881
C147  C     C_3   0.520270 0.350942 0.926829 -0.929194
H61   H     H_    0.543783 0.382136 0.902206 0.264370
H62   H     H_    0.494643 0.389319 0.947359 0.263899
H63   H     H_    0.478352 0.313764 0.915500 0.288740
O62   O     O_3   0.786468 0.675774 0.933858 -0.642406
C148  C     C_3   0.746794 0.614056 0.920645 0.210164
H64   H     H_    0.787044 0.572441 0.912218 0.212637
H65   H     H_    0.719438 0.628084 0.893054 0.147833
C149  C     C_3   0.691871 0.577605 0.948809 -0.456874
H66   H     H_    0.720491 0.554864 0.974406 0.245577
H67   H     H_    0.650922 0.616565 0.959338 0.261239
C150  C     C_3   0.651229 0.516753 0.928518 -0.895997
H68   H     H_    0.617897 0.538716 0.904387 0.254947
H69   H     H_    0.614875 0.489303 0.949657 0.279465
H70   H     H_    0.689786 0.476695 0.916596 0.288650
O63   O     O_3   0.377323 0.726659 0.959897 -0.633738
C151  C     C_3   0.387126 0.745788 0.920242 0.189131
H71   H     H_    0.410289 0.800567 0.917424 0.215957
H72   H     H_    0.336526 0.747009 0.903255 0.118165
C152  C     C_3   0.442143 0.693541 0.902350 -0.387021
H73   H     H_    0.495452 0.701244 0.916672 0.253702
H74   H     H_    0.425227 0.636966 0.907804 0.223055
C153  C     C_3   0.451008 0.704981 0.858635 -0.886691
H75   H     H_    0.398211 0.698385 0.843672 0.284433
H76   H     H_    0.489557 0.664549 0.846896 0.255170
H77   H     H_    0.473004 0.759564 0.852557 0.295075
O64   O     O_3   0.248810 0.357059 0.943965 -0.612216
C154  C     C_3   0.309181 0.404899 0.944501 0.084805
H78   H     H_    0.308906 0.435282 0.916597 0.172251
H79   H     H_    0.361649 0.376402 0.945374 0.179972
C155  C     C_3   0.306518 0.459620 0.977956 -0.407122
H80   H     H_    0.256760 0.492574 0.975769 0.288992
H81   H     H_    0.306398 0.430896 0.006222 0.192644
C156  C     C_3   0.372307 0.509490 0.977130 -0.824818
H82   H     H_    0.422387 0.478349 0.983026 0.240396
H83   H     H_    0.366439 0.551483 0.999915 0.285798
H84   H     H_    0.377301 0.536363 0.948348 0.272232
O65   O     O_3   0.360234 0.251334 0.945617 -0.669965
C157  C     C_3   0.333663 0.237226 0.907620 0.084397
H85   H     H_    0.338657 0.287527 0.890151 0.182076
H86   H     H_    0.275649 0.220048 0.906604 0.161043
C158  C     C_3   0.379437 0.178394 0.888498 -0.304664
H87   H     H_    0.437715 0.192555 0.890719 0.241878
H88   H     H_    0.370089 0.126445 0.903911 0.242574
C159  C     C_3   0.360030 0.168903 0.845689 -0.917736
H89   H     H_    0.302143 0.153753 0.842725 0.262534
H90   H     H_    0.393872 0.125544 0.832860 0.264903
H91   H     H_    0.370305 0.219693 0.829354 0.277361
O66   O     O_3   0.263830 0.628649 0.953089 -0.634525
C160  C     C_3   0.252386 0.637348 0.912362 0.044698
H92   H     H_    0.304305 0.626477 0.897391 0.172312
H93   H     H_    0.232884 0.692077 0.903563 0.113368
C161  C     C_3   0.197094 0.583591 0.896858 -0.269060
H94   H     H_    0.206434 0.529336 0.909694 0.271385
H95   H     H_    0.142336 0.603145 0.904828 0.231807
C162  C     C_3   0.200990 0.578299 0.852546 -0.926588
H96   H     H_    0.194243 0.632427 0.839089 0.260799
H97   H     H_    0.157182 0.542684 0.841850 0.288227
H98   H     H_    0.253819 0.555269 0.843406 0.273745
O67   O     O_3   0.642350 0.747519 0.945393 -0.663519
C163  C     C_3   0.658575 0.762060 0.905724 0.050409
H99   H     H_    0.639192 0.715432 0.888459 0.167166
H100  H     H_    0.717219 0.770168 0.899226 0.183760
C164  C     C_3   0.617373 0.828204 0.891416 -0.295189
H101  H     H_    0.558967 0.820790 0.897840 0.260681
H102  H     H_    0.637406 0.877052 0.906670 0.230944
C165  C     C_3   0.627249 0.838636 0.847631 -0.948678
H103  H     H_    0.685305 0.847174 0.840530 0.268963
H104  H     H_    0.596211 0.886409 0.837826 0.265922
H105  H     H_    0.607074 0.790718 0.831617 0.273741
O68   O     O_3   0.749848 0.355660 0.943880 -0.668517
C166  C     C_3   0.765940 0.337682 0.904664 0.050096
H106  H     H_    0.718501 0.352832 0.886776 0.165707
H107  H     H_    0.777731 0.279381 0.899524 0.179638
C167  C     C_3   0.829819 0.382017 0.889720 -0.297245
H108  H     H_    0.819331 0.440053 0.895333 0.253321
H109  H     H_    0.879840 0.365329 0.905176 0.233069
C168  C     C_3   0.840499 0.371225 0.846050 -0.929417
H110  H     H_    0.850703 0.313435 0.839584 0.260972
H111  H     H_    0.887384 0.403419 0.835827 0.266441
H112  H     H_    0.791794 0.389372 0.829890 0.276687
O69   O     O_3   0.208079 0.734381 0.540464 -0.684051
C169  C     C_3   0.203558 0.689044 0.573497 0.065110
H113  H     H_    0.243285 0.710318 0.594804 0.179683
H114  H     H_    0.222160 0.633287 0.567826 0.160893
C170  C     C_3   0.128940 0.692890 0.593024 -0.310871
H115  H     H_    0.114896 0.750250 0.598588 0.252215
H116  H     H_    0.086584 0.669729 0.573960 0.210122
C171  C     C_3   0.129141 0.651981 0.631646 -0.829584
H117  H     H_    0.144145 0.594634 0.627014 0.261712
H118  H     H_    0.074563 0.654091 0.644974 0.299106
H119  H     H_    0.168226 0.676865 0.652131 0.269263
O70   O     O_3   0.257247 0.197656 0.537297 -0.690175
C172  C     C_3   0.297773 0.192837 0.572048 0.063341
H120  H     H_    0.271158 0.229140 0.593399 0.182795
H121  H     H_    0.353644 0.214088 0.569121 0.156384
C173  C     C_3   0.295528 0.116553 0.589334 -0.318629
H122  H     H_    0.238259 0.099420 0.593028 0.249029
H123  H     H_    0.322531 0.077492 0.569690 0.209617
C174  C     C_3   0.332970 0.114766 0.628875 -0.828546
H124  H     H_    0.390368 0.131783 0.625966 0.262628
H125  H     H_    0.331399 0.059276 0.640835 0.306269
H126  H     H_    0.304985 0.151177 0.649651 0.270593
O71   O     O_3   0.766543 0.298919 0.537048 -0.654202
C175  C     C_3   0.803535 0.273258 0.570353 0.052172
H127  H     H_    0.782671 0.303691 0.595827 0.198294
H128  H     H_    0.863240 0.282705 0.569509 0.121718
C176  C     C_3   0.787628 0.192903 0.576579 -0.423463
H129  H     H_    0.728129 0.184022 0.576887 0.264758
H130  H     H_    0.811331 0.161278 0.552280 0.193088
C177  C     C_3   0.819252 0.165690 0.614858 -0.710486
H131  H     H_    0.878896 0.173222 0.615068 0.249387
H132  H     H_    0.807121 0.107321 0.618298 0.289530
H133  H     H_    0.794984 0.195165 0.639782 0.291004
O72   O     O_3   0.740706 0.798981 0.537867 -0.686878
C178  C     C_3   0.697990 0.801277 0.572029 0.072357
H134  H     H_    0.722942 0.763050 0.593012 0.180658
H135  H     H_    0.642293 0.780542 0.567781 0.156920
C179  C     C_3   0.699736 0.876170 0.590880 -0.323138
H136  H     H_    0.756877 0.892307 0.595949 0.246940
H137  H     H_    0.674721 0.917090 0.571541 0.210480
C180  C     C_3   0.659463 0.875542 0.629730 -0.827206
H138  H     H_    0.602167 0.859312 0.625482 0.265020
H139  H     H_    0.660707 0.930182 0.642722 0.300097
H140  H     H_    0.685581 0.837343 0.650303 0.270373
O73   O     O_3   0.724334 0.663479 0.505525 -0.680780
C181  C     C_3   0.720321 0.630354 0.542612 0.169832
H141  H     H_    0.674109 0.654761 0.558360 0.121974
H142  H     H_    0.767923 0.641349 0.561473 0.184687
C182  C     C_3   0.702766 0.549750 0.538364 -0.350026
H143  H     H_    0.645624 0.543645 0.528857 0.203847
H144  H     H_    0.737244 0.524635 0.515648 0.253538
C183  C     C_3   0.713265 0.509366 0.576676 -0.822565
H145  H     H_    0.770634 0.512848 0.586088 0.301910
H146  H     H_    0.699021 0.451617 0.572746 0.258275
H147  H     H_    0.677883 0.532558 0.599626 0.252498
O74   O     O_3   0.660708 0.275602 0.491447 -0.656055
C184  C     C_3   0.610003 0.293193 0.520739 0.188182
H148  H     H_    0.623632 0.348217 0.531206 0.170393
H149  H     H_    0.613802 0.258566 0.547123 0.171993
C185  C     C_3   0.533742 0.296607 0.503430 -0.348202
H150  H     H_    0.531881 0.339971 0.481042 0.222353
H151  H     H_    0.519956 0.245121 0.488799 0.239498
C186  C     C_3   0.477225 0.312285 0.534614 -0.925452
H152  H     H_    0.478442 0.269998 0.557563 0.281504
H153  H     H_    0.422878 0.312569 0.521019 0.283593
H154  H     H_    0.487288 0.365832 0.548005 0.252039
O75   O     O_3   0.274625 0.336886 0.507338 -0.690164
C187  C     C_3   0.276057 0.364973 0.545630 0.163906
H155  H     H_    0.319718 0.337033 0.561683 0.130692
H156  H     H_    0.226261 0.353889 0.562942 0.188725
C188  C     C_3   0.297135 0.445070 0.544669 -0.342516
H157  H     H_    0.354552 0.449977 0.535262 0.208379
H158  H     H_    0.263881 0.475134 0.523235 0.253595
C189  C     C_3   0.288435 0.479754 0.584613 -0.866198
H159  H     H_    0.230430 0.480633 0.593172 0.302339
H160  H     H_    0.308857 0.536070 0.583587 0.232066
H161  H     H_    0.319861 0.449420 0.606774 0.268594
O76   O     O_3   0.336068 0.724937 0.502780 -0.681933
C190  C     C_3   0.370548 0.716907 0.539246 0.173836
H162  H     H_    0.346422 0.669047 0.553737 0.131509
H163  H     H_    0.360757 0.762437 0.559660 0.187945
C191  C     C_3   0.451036 0.699727 0.533584 -0.340953
H164  H     H_    0.456401 0.645180 0.520504 0.210379
H165  H     H_    0.476747 0.738655 0.513217 0.251013
C192  C     C_3   0.491229 0.701107 0.572285 -0.882377
H166  H     H_    0.490621 0.756445 0.584651 0.297950
H167  H     H_    0.548199 0.684508 0.567622 0.239388
H168  H     H_    0.465798 0.663067 0.593294 0.260220
O77   O     O_3   0.700839 0.240419 0.037379 -0.685791
C193  C     C_3   0.700232 0.197665 0.071525 0.064379
H169  H     H_    0.738937 0.222946 0.092081 0.180239
H170  H     H_    0.721405 0.142338 0.066948 0.154068
C194  C     C_3   0.625745 0.198309 0.091292 -0.305354
H171  H     H_    0.609391 0.255014 0.096978 0.251204
H172  H     H_    0.584249 0.173547 0.072255 0.212728
C195  C     C_3   0.627870 0.157165 0.129824 -0.831298
H173  H     H_    0.644126 0.100225 0.124930 0.262252
H174  H     H_    0.573545 0.157814 0.143552 0.298775
H175  H     H_    0.666854 0.182849 0.150077 0.271317
O78   O     O_3   0.758474 0.699944 0.037706 -0.683590
C196  C     C_3   0.799435 0.694345 0.072273 0.066595
H176  H     H_    0.773832 0.731175 0.093718 0.183481
H177  H     H_    0.855550 0.714771 0.069131 0.154555
C197  C     C_3   0.795979 0.618045 0.089547 -0.317290
H178  H     H_    0.738438 0.601865 0.093260 0.251027
H179  H     H_    0.822247 0.578564 0.069863 0.208085
C198  C     C_3   0.833429 0.615389 0.129072 -0.829289
H180  H     H_    0.891075 0.631547 0.126178 0.264577
H181  H     H_    0.830982 0.559800 0.140922 0.304534
H182  H     H_    0.806040 0.652100 0.149922 0.271157
O79   O     O_3   0.258402 0.803127 0.031782 -0.658164
C199  C     C_3   0.289838 0.780769 0.067390 0.063900
H183  H     H_    0.264804 0.813304 0.090952 0.189863
H184  H     H_    0.349397 0.790430 0.069159 0.138801
C200  C     C_3   0.273288 0.700946 0.075007 -0.422286
H185  H     H_    0.213894 0.691920 0.073607 0.260560
H186  H     H_    0.299707 0.667419 0.052300 0.211272
C201  C     C_3   0.300479 0.677024 0.114887 -0.704893
H187  H     H_    0.359875 0.685301 0.117033 0.250749
H188  H     H_    0.288617 0.618806 0.119191 0.289459
H189  H     H_    0.272932 0.708047 0.138230 0.292091
O80   O     O_3   0.221059 0.280113 0.040499 -0.680402
C202  C     C_3   0.203217 0.317356 0.075205 0.066354
H190  H     H_    0.220722 0.282008 0.099582 0.198105
H191  H     H_    0.144143 0.323234 0.079445 0.176840
C203  C     C_3   0.243255 0.389610 0.079353 -0.470836
H192  H     H_    0.301825 0.381557 0.073381 0.246749
H193  H     H_    0.221450 0.429538 0.058322 0.197955
C204  C     C_3   0.234181 0.420300 0.120220 -0.722147
H194  H     H_    0.175902 0.428117 0.127022 0.266634
H195  H     H_    0.262150 0.473221 0.122003 0.289123
H196  H     H_    0.258306 0.383317 0.142105 0.268135
O81   O     O_3   0.224437 0.162667 0.000611 -0.666760
C205  C     C_3   0.214018 0.125490 0.036254 0.198455
H197  H     H_    0.164856 0.148144 0.050268 0.159091
H198  H     H_    0.257904 0.134532 0.057844 0.185002
C206  C     C_3   0.199026 0.045311 0.028603 -0.374065
H199  H     H_    0.144768 0.039552 0.015055 0.209692
H200  H     H_    0.239234 0.022936 0.007851 0.253063
C207  C     C_3   0.201063 0.001365 0.066190 -0.842801
H201  H     H_    0.255592 0.004680 0.079618 0.297633
H202  H     H_    0.189115 0.943915 0.059739 0.266346
H203  H     H_    0.159984 0.021764 0.087084 0.250868
O82   O     O_3   0.156891 0.775611 0.984886 -0.661786
C208  C     C_3   0.102938 0.794839 0.012085 0.179222
H204  H     H_    0.112865 0.851997 0.020149 0.169335
H205  H     H_    0.106382 0.764797 0.040046 0.170127
C209  C     C_3   0.028093 0.791205 0.993152 -0.351437
H206  H     H_    0.026757 0.828256 0.967671 0.227231
H207  H     H_    0.016838 0.735948 0.982399 0.234537
C210  C     C_3   0.968982 0.813152 0.021716 -0.919192
H208  H     H_    0.970024 0.777790 0.047842 0.274593
H209  H     H_    0.915621 0.807694 0.007358 0.293568
H210  H     H_    0.976404 0.870141 0.030807 0.249668
O83   O     O_3   0.775007 0.837983 0.005124 -0.693934
C211  C     C_3   0.778543 0.866251 0.043327 0.157781
H211  H     H_    0.823724 0.838996 0.058542 0.135490
H212  H     H_    0.729999 0.854491 0.061536 0.188714
C212  C     C_3   0.797940 0.946759 0.041864 -0.339569
H213  H     H_    0.855030 0.952770 0.032086 0.207005
H214  H     H_    0.763624 0.975710 0.020468 0.254307
C213  C     C_3   0.789194 0.982005 0.081664 -0.861107
H215  H     H_    0.731488 0.980858 0.090802 0.302349
H216  H     H_    0.807304 0.039061 0.080076 0.234081
H217  H     H_    0.822500 0.953381 0.103686 0.266104
O84   O     O_3   0.839544 0.223981 0.003944 -0.682900
C214  C     C_3   0.870568 0.219254 0.041466 0.161639
H218  H     H_    0.846162 0.171922 0.056320 0.124014
H219  H     H_    0.857619 0.265922 0.060587 0.184598
C215  C     C_3   0.951999 0.203773 0.038295 -0.339022
H220  H     H_    0.960026 0.146942 0.028952 0.203535
H221  H     H_    0.977633 0.238692 0.015872 0.254484
C216  C     C_3   0.990031 0.215448 0.077130 -0.837671
H222  H     H_    0.985055 0.272691 0.086257 0.305251
H223  H     H_    0.048360 0.202330 0.074098 0.241074
H224  H     H_    0.966039 0.180023 0.099881 0.258935
N1    N     N_R   0.912399 0.599781 0.647635 0.242193
O85   O     O_R   0.935319 0.640017 0.619037 -0.395347
O86   O     O_R   0.843861 0.599581 0.656407 -0.363019
N2    N     N_R   0.405627 0.905726 0.647571 0.242103
O87   O     O_R   0.363040 0.926180 0.619527 -0.389129
O88   O     O_R   0.410978 0.837392 0.655840 -0.368661
N3    N     N_R   0.086906 0.399564 0.646570 0.239436
O89   O     O_R   0.061249 0.358380 0.619241 -0.383439
O90   O     O_R   0.156227 0.400363 0.653095 -0.381539
N4    N     N_R   0.597125 0.090631 0.646893 0.242825
O91   O     O_R   0.639271 0.068311 0.619008 -0.413211
O92   O     O_R   0.593883 0.159242 0.654617 -0.360637
N5    N     N_R   0.410821 0.098779 0.147022 0.243557
O93   O     O_R   0.434220 0.140089 0.118986 -0.395061
O94   O     O_R   0.341851 0.096501 0.154646 -0.356125
N6    N     N_R   0.907053 0.404828 0.147814 0.241300
O95   O     O_R   0.863674 0.424825 0.120025 -0.389770
O96   O     O_R   0.913351 0.336560 0.156045 -0.369420
N7    N     N_R   0.587665 0.900776 0.146804 0.238960
O97   O     O_R   0.563259 0.859244 0.119298 -0.373005
O98   O     O_R   0.656779 0.902408 0.153887 -0.377461
N8    N     N_R   0.094170 0.594106 0.146707 0.244284
O99   O     O_R   0.137535 0.572530 0.119203 -0.417737
O100  O     O_R   0.087817 0.662805 0.153608 -0.362393
N9    N     N_R   0.079709 0.315901 0.710388 0.248864
O101  O     O_R   0.141126 0.284806 0.718154 -0.308091
O102  O     O_R   0.031210 0.280817 0.690591 -0.369473
N10   N     N_R   0.683128 0.081830 0.709701 0.246707
O103  O     O_R   0.712787 0.143668 0.717827 -0.315644
O104  O     O_R   0.719304 0.035168 0.689207 -0.402135
N11   N     N_R   0.926656 0.686192 0.710215 0.246462
O105  O     O_R   0.866758 0.718637 0.719695 -0.304191
O106  O     O_R   0.973705 0.720052 0.688644 -0.385540
N12   N     N_R   0.318372 0.914018 0.710066 0.252962
O107  O     O_R   0.290646 0.851520 0.718933 -0.306523
O108  O     O_R   0.280673 0.959029 0.689279 -0.385821
N13   N     N_R   0.578036 0.815808 0.209913 0.248064
O109  O     O_R   0.639567 0.784903 0.217642 -0.305850
O110  O     O_R   0.529898 0.780891 0.189782 -0.367274
N14   N     N_R   0.179107 0.591450 0.209887 0.247039
O111  O     O_R   0.205704 0.654761 0.217779 -0.318370
O112  O     O_R   0.217846 0.546040 0.189941 -0.413857
N15   N     N_R   0.420402 0.183914 0.209956 0.248274
O113  O     O_R   0.358730 0.214148 0.218202 -0.304021
O114  O     O_R   0.467765 0.219509 0.189417 -0.385202
N16   N     N_R   0.820262 0.410959 0.210638 0.251193
O115  O     O_R   0.793138 0.348126 0.219350 -0.301110
O116  O     O_R   0.782110 0.455834 0.190000 -0.384914
O117  O     O_3   0.576879 0.817690 0.289165 -0.559755
C217  C     C_3   0.515450 0.773637 0.295290 0.126900
H225  H     H_    0.488970 0.759869 0.267181 0.160010
H226  H     H_    0.475576 0.801352 0.314391 0.138797
C218  C     C_3   0.539358 0.703799 0.315148 -0.249577
H227  H     H_    0.579954 0.676096 0.296532 0.239165
H228  H     H_    0.565155 0.716646 0.343482 0.261384
C219  C     C_3   0.475515 0.653150 0.322174 -0.978588
H229  H     H_    0.434219 0.679545 0.340871 0.270184
H230  H     H_    0.494724 0.603505 0.337038 0.269419
H231  H     H_    0.450523 0.637684 0.294048 0.280518
O118  O     O_3   0.178320 0.586326 0.289148 -0.562056
C220  C     C_3   0.223721 0.525725 0.294472 0.128809
H232  H     H_    0.237519 0.500281 0.266065 0.158975
H233  H     H_    0.196857 0.484915 0.313417 0.139530
C221  C     C_3   0.293831 0.549823 0.313991 -0.257939
H234  H     H_    0.321544 0.590077 0.295114 0.236901
H235  H     H_    0.281126 0.575841 0.342297 0.260010
C222  C     C_3   0.344442 0.486048 0.321028 -0.970072
H236  H     H_    0.317945 0.445372 0.340137 0.269909
H237  H     H_    0.394555 0.505102 0.335485 0.270405
H238  H     H_    0.359455 0.460372 0.292977 0.279672
O119  O     O_3   0.424482 0.182405 0.289245 -0.559423
C223  C     C_3   0.486666 0.225572 0.294821 0.127772
H239  H     H_    0.512553 0.239312 0.266431 0.159792
H240  H     H_    0.526837 0.197136 0.313507 0.136467
C224  C     C_3   0.464121 0.295560 0.314891 -0.251706
H241  H     H_    0.423149 0.323793 0.296774 0.239246
H242  H     H_    0.439188 0.282814 0.343567 0.260646
C225  C     C_3   0.528669 0.345586 0.321015 -0.973670
H243  H     H_    0.570290 0.318748 0.339277 0.272378
H244  H     H_    0.510447 0.395440 0.335958 0.268809
H245  H     H_    0.552904 0.360808 0.292546 0.280925
O120  O     O_3   0.819956 0.418850 0.289863 -0.563677
C226  C     C_3   0.775614 0.480325 0.294812 0.126891
H246  H     H_    0.762196 0.505288 0.266189 0.159004
H247  H     H_    0.803122 0.521247 0.313312 0.133827
C227  C     C_3   0.705168 0.457585 0.314720 -0.257176
H248  H     H_    0.677396 0.416668 0.296490 0.239170
H249  H     H_    0.717453 0.432762 0.343424 0.258709
C228  C     C_3   0.654812 0.521870 0.320723 -0.969599
H250  H     H_    0.681362 0.563361 0.339101 0.270696
H251  H     H_    0.604521 0.503666 0.335527 0.268516
H252  H     H_    0.640087 0.546183 0.292251 0.280975
O121  O     O_3   0.077984 0.318239 0.789750 -0.563579
C229  C     C_3   0.015385 0.275665 0.795694 0.127590
H253  H     H_    0.988861 0.262488 0.767512 0.159941
H254  H     H_    0.975946 0.304388 0.814607 0.141196
C230  C     C_3   0.037008 0.205246 0.815663 -0.257391
H255  H     H_    0.076440 0.176196 0.796972 0.239220
H256  H     H_    0.063442 0.217331 0.843921 0.260491
C231  C     C_3   0.971401 0.156906 0.822876 -0.966566
H257  H     H_    0.931356 0.184775 0.841736 0.271969
H258  H     H_    0.988811 0.106502 0.837637 0.268714
H259  H     H_    0.945459 0.142509 0.794832 0.277888
O122  O     O_3   0.682413 0.076150 0.788890 -0.557873
C232  C     C_3   0.725046 0.013740 0.794551 0.127882
H260  H     H_    0.737596 0.987149 0.766279 0.157891
H261  H     H_    0.696498 0.974548 0.813804 0.140675
C233  C     C_3   0.796169 0.035480 0.813819 -0.267747
H262  H     H_    0.825635 0.073704 0.794482 0.237286
H263  H     H_    0.784630 0.063185 0.841802 0.264287
C234  C     C_3   0.843966 0.969949 0.821648 -0.935654
H264  H     H_    0.816012 0.931647 0.841572 0.273685
H265  H     H_    0.895196 0.987667 0.835493 0.266043
H266  H     H_    0.857202 0.942036 0.793966 0.282115
O123  O     O_3   0.939860 0.686450 0.790012 -0.564398
C235  C     C_3   0.002236 0.731090 0.787492 0.140894
H267  H     H_    0.983763 0.786895 0.781088 0.193581
H268  H     H_    0.040598 0.716119 0.763653 0.130223
C236  C     C_3   0.042616 0.731320 0.826331 -0.361364
H269  H     H_    0.005472 0.749716 0.849744 0.276734
H270  H     H_    0.061324 0.675843 0.833257 0.224932
C237  C     C_3   0.108055 0.781505 0.825128 -0.941274
H271  H     H_    0.146305 0.764682 0.801876 0.287468
H272  H     H_    0.136631 0.779419 0.853501 0.272300
H273  H     H_    0.090286 0.837840 0.819704 0.266126
O124  O     O_3   0.315484 0.926149 0.788784 -0.558632
C238  C     C_3   0.272644 0.988866 0.792560 0.134859
H274  H     H_    0.262562 0.014409 0.763679 0.155263
H275  H     H_    0.299675 0.028725 0.811849 0.143925
C239  C     C_3   0.199936 0.967919 0.810511 -0.263123
H276  H     H_    0.172489 0.928605 0.791147 0.239197
H277  H     H_    0.208948 0.941829 0.839259 0.257839
C240  C     C_3   0.151202 0.033543 0.815830 -0.969874
H278  H     H_    0.177166 0.073451 0.835420 0.270634
H279  H     H_    0.098951 0.016389 0.828939 0.268041
H280  H     H_    0.140212 0.059256 0.787226 0.282008
N17   N     N_R   0.578715 0.893238 0.353459 0.247054
O125  O     O_R   0.549188 0.854439 0.380857 -0.430481
O126  O     O_R   0.647277 0.885808 0.345872 -0.362746
N18   N     N_R   0.102013 0.585552 0.353453 0.254062
O127  O     O_R   0.144361 0.557494 0.379633 -0.432456
O128  O     O_R   0.101568 0.655139 0.348338 -0.339706
N19   N     N_R   0.420358 0.105794 0.353314 0.242457
O129  O     O_R   0.449092 0.145191 0.380512 -0.432391
O130  O     O_R   0.351557 0.111578 0.346024 -0.372847
N20   N     N_R   0.896777 0.417121 0.353753 0.250410
O131  O     O_R   0.854797 0.445082 0.380172 -0.445978
O132  O     O_R   0.896406 0.347653 0.348375 -0.325432
N21   N     N_R   0.079993 0.393943 0.854033 0.251430
O133  O     O_R   0.049277 0.354152 0.880629 -0.437973
O134  O     O_R   0.149635 0.389737 0.848837 -0.334806
N22   N     N_R   0.606354 0.079141 0.853221 0.244783
O135  O     O_R   0.645953 0.049536 0.880146 -0.429127
O136  O     O_R   0.612285 0.147979 0.846414 -0.369739
N23   N     N_R   0.918004 0.604656 0.852333 0.246916
O137  O     O_R   0.940959 0.639841 0.882621 -0.427705
O138  O     O_R   0.851163 0.612569 0.841301 -0.364025
N24   N     N_R   0.387534 0.929353 0.854334 0.230833
O139  O     O_R   0.350199 0.963238 0.880737 -0.466292
O140  O     O_R   0.376548 0.860807 0.848958 -0.399510

loop_
_geom_bond_atom_site_label_1
_geom_bond_atom_site_label_2
_geom_bond_distance
_ccdc_geom_bond_type
C176  C177  1.525590 S    
C157  H86   1.118714 S    
C186  H152  1.110677 S    
N5    O93   1.301818 A    
C46   O74   1.402127 S    
C130  H22   1.106949 S    
C199  H184  1.116758 S    
C240  H278  1.110973 S    
C113  C119  1.405133 A    
C130  C131  1.543406 S    
C89   O117  1.384688 S    
C152  H74   1.109221 S    
C102  C108  1.419357 A    
O117  C217  1.412703 S    
C207  H201  1.111140 S    
C216  H224  1.110792 S    
C93   O121  1.384918 S    
N19   O130  1.300948 A    
C1    C66   1.454497 S    
C103  C115  1.408025 A    
O74   C184  1.412405 S    
C236  H270  1.110455 S    
C114  N22   1.438189 S    
C86   C90   1.398891 A    
C228  H251  1.110130 S    
C53   O81   1.403586 S    
C234  H266  1.110898 S    
C30   C46   1.353125 D    
C157  C158  1.529311 S    
C225  H243  1.111049 S    
C139  C140  1.525208 S    
C144  H56   1.110674 S    
O58   C136  1.423153 S    
C167  C168  1.526844 S    
O49   C23   1.291758 A    
O84   C214  1.415084 S    
C194  H171  1.111485 S    
O120  C226  1.414361 S    
C172  C173  1.532582 S    
Zn12  O26   1.937323 S    
C239  C240  1.525115 S    
C167  H108  1.110418 S    
O34   C22   1.280897 A    
Zn14  O36   1.936867 S    
C77   C107  1.412950 A    
N14   O111  1.301263 A    
C192  H167  1.108412 S    
C237  H273  1.110225 S    
C78   C108  1.413946 A    
C126  H14   1.108072 S    
O52   C22   1.290870 A    
O41   C15   1.289259 A    
C18   C51   1.467451 S    
Zn15  O35   1.934839 S    
C72   C84   1.416222 A    
C30   O58   1.389625 S    
C8    C120  1.452875 S    
C170  C171  1.526834 S    
Zn4   O2    1.946343 S    
N18   O128  1.301211 A    
C182  H144  1.109913 S    
C136  H36   1.110335 S    
O47   C17   1.274868 A    
C238  C239  1.526436 S    
C239  H277  1.111765 S    
C133  H30   1.114053 S    
C40   C56   1.356603 D    
C233  C234  1.526125 S    
C36   C37   1.499949 S    
N6    O96   1.301138 A    
C139  H43   1.107612 S    
C168  H112  1.110754 S    
C98   C106  1.419011 A    
O43   C13   1.284030 A    
C219  H229  1.110982 S    
N16   O115  1.301287 A    
C208  H205  1.111294 S    
C235  H267  1.111098 S    
O22   C10   1.283766 A    
O28   C16   1.276964 A    
C155  H80   1.106918 S    
C160  H92   1.106399 S    
Zn10  O28   1.936867 S    
C223  C224  1.528399 S    
C80   C106  1.413042 A    
C146  C147  1.524821 S    
C133  C134  1.528859 S    
Zn12  O24   1.934309 S    
C156  H84   1.109808 S    
Zn15  O3    1.945435 S    
C128  H17   1.108571 S    
N12   O107  1.301277 A    
C58   N2    1.439353 S    
C205  H197  1.110417 S    
C85   N13   1.436180 S    
C152  H73   1.111654 S    
Zn16  O4    1.946490 S    
C209  H206  1.111721 S    
C221  H235  1.111459 S    
N8    O99   1.301583 A    
C202  H191  1.106455 S    
C81   N9    1.436057 S    
C25   C32   1.499449 S    
O121  C229  1.413788 S    
Zn4   O16   1.940478 S    
C61   C75   1.411114 A    
Zn5   O49   1.934879 S    
C187  H155  1.106826 S    
C195  H174  1.108187 S    
C201  H188  1.110284 S    
C204  H195  1.110178 S    
C232  H260  1.114531 S    
C194  C195  1.526891 S    
C143  H53   1.110962 S    
C128  C129  1.525891 S    
C203  H192  1.111374 S    
N24   O140  1.300118 A    
O71   C175  1.416078 S    
C240  H280  1.110571 S    
O11   C3    1.278719 A    
C151  H71   1.105359 S    
Zn9   O21   1.935390 S    
C160  C161  1.524592 S    
C69   C77   1.420683 A    
C178  H135  1.108491 S    
Zn3   O43   1.937330 S    
C147  H61   1.110905 S    
C191  H165  1.109568 S    
C147  H63   1.108333 S    
C219  H230  1.110188 S    
C123  H5    1.110627 S    
C140  H46   1.110988 S    
C234  H264  1.111088 S    
C201  H189  1.110887 S    
Zn9   O25   1.932391 S    
C171  H119  1.110752 S    
Zn10  O22   1.936760 S    
C112  C118  1.401935 A    
C183  H145  1.111074 S    
C149  H67   1.107191 S    
C146  H59   1.110377 S    
C88   N16   1.435931 S    
O69   C169  1.412806 S    
N2    O87   1.301731 A    
Zn13  O29   1.935390 S    
C32   O60   1.388837 S    
Zn10  O2    1.941659 S    
C54   O82   1.401563 S    
C190  H162  1.108761 S    
C91   C99   1.414587 A    
Zn3   O1    1.942563 S    
C226  C227  1.527484 S    
C92   C100  1.412769 A    
O80   C202  1.417894 S    
N20   O132  1.301185 A    
C190  H163  1.113429 S    
C177  H131  1.110916 S    
C73   C79   1.421111 A    
N24   O139  1.301617 A    
C110  C118  1.403430 A    
O118  C220  1.414315 S    
C58   C66   1.405626 A    
C211  H212  1.113449 S    
N21   O133  1.301658 A    
C136  C137  1.531396 S    
C42   O70   1.403059 S    
C238  H274  1.114694 S    
C215  H220  1.111898 S    
C59   N3    1.438690 S    
C220  H232  1.114353 S    
C180  H138  1.110560 S    
C48   O76   1.403835 S    
Zn8   O46   1.935409 S    
C173  H122  1.111505 S    
C188  H158  1.109724 S    
C50   O78   1.403493 S    
N17   O125  1.301664 A    
C97   C109  1.411432 A    
C22   C55   1.490714 S    
O29   C17   1.291827 A    
C222  H236  1.110991 S    
C219  H231  1.110545 S    
C94   O122  1.384760 S    
C210  H210  1.110731 S    
C231  H257  1.111037 S    
C196  C197  1.533421 S    
C222  H238  1.110851 S    
O8    C2    1.276520 A    
C150  H69   1.110296 S    
N9    O101  1.301313 A    
N10   O103  1.301283 A    
C100  C106  1.418703 A    
C186  H153  1.108763 S    
C92   O120  1.384993 S    
C214  H219  1.113420 S    
C14   C47   1.491055 S    
C132  H28   1.107671 S    
Zn1   O41   1.934879 S    
C198  H181  1.107671 S    
O16   C6    1.275117 A    
N4    O91   1.301837 A    
O14   C6    1.277672 A    
C142  C143  1.528803 S    
C217  H226  1.112485 S    
Zn15  O9    1.939879 S    
C164  H102  1.111036 S    
C21   C54   1.496830 S    
C178  H134  1.110917 S    
C209  C210  1.522976 S    
Zn12  O6    1.937103 S    
C49   O77   1.403120 S    
C34   O62   1.391944 S    
C158  H88   1.110795 S    
C60   C70   1.410968 A    
C82   N10   1.436340 S    
O45   C19   1.273757 A    
C189  H159  1.110917 S    
C129  H20   1.110778 S    
O17   C7    1.275011 A    
C187  C188  1.534646 S    
N7    O97   1.301886 A    
C64   N8    1.438948 S    
C175  H127  1.111029 S    
O72   C178  1.413741 S    
C215  C216  1.525832 S    
Zn5   O17   1.937686 S    
C13   C46   1.486464 S    
C230  C231  1.526200 S    
C36   O64   1.394430 S    
C205  H198  1.113498 S    
C10   C43   1.465960 S    
O9    C3    1.278795 A    
C202  C203  1.536501 S    
C62   C76   1.410873 A    
O57   C133  1.418661 S    
C63   C73   1.410539 A    
C151  C152  1.533289 S    
C93   C101  1.414261 A    
O61   C145  1.433400 S    
C102  C114  1.410024 A    
C124  H9    1.106357 S    
C17   C50   1.482829 S    
C161  C162  1.527723 S    
N22   O135  1.301640 A    
C61   N5    1.439098 S    
C218  H228  1.111552 S    
C132  H26   1.107662 S    
C211  H211  1.107831 S    
N8    O100  1.301115 A    
C87   C91   1.398258 A    
C183  H147  1.110803 S    
C88   C92   1.398157 A    
O66   C160  1.424805 S    
C233  H263  1.111603 S    
C180  H140  1.110741 S    
C89   C97   1.415802 A    
C3    C68   1.456465 S    
Zn9   O7    1.937429 S    
C4    C67   1.453046 S    
O50   C24   1.286337 A    
Zn10  O8    1.939523 S    
Zn11  O5    1.939879 S    
O5    C1    1.277330 A    
O31   C19   1.286781 A    
C76   C88   1.417682 A    
C60   N4    1.439327 S    
C121  H1    1.111095 S    
N1    O85   1.301811 A    
C60   C66   1.405107 A    
C75   C87   1.416877 A    
O75   C187  1.416729 S    
C127  C128  1.528802 S    
C64   C68   1.406355 A    
C122  C123  1.520016 S    
C86   N14   1.435872 S    
C38   C54   1.363214 D    
C193  C194  1.533434 S    
C223  H240  1.114711 S    
C148  H64   1.110438 S    
C34   C39   1.499097 S    
C224  H242  1.111498 S    
C114  C120  1.402769 A    
C74   C86   1.417950 A    
C220  C221  1.527456 S    
C167  H109  1.111058 S    
C169  C170  1.533724 S    
C181  H141  1.107403 S    
C40   O68   1.389704 S    
C173  C174  1.526769 S    
C185  H150  1.111727 S    
C166  H107  1.116902 S    
C122  H3    1.106057 S    
C184  C185  1.532386 S    
C154  H79   1.104935 S    
C213  H216  1.110028 S    
C96   C104  1.415112 A    
Zn4   O42   1.935536 S    
C210  H208  1.110408 S    
C231  H259  1.110567 S    
C129  H21   1.109950 S    
C230  H256  1.111440 S    
C179  H136  1.111509 S    
C44   O72   1.403750 S    
C176  H130  1.110778 S    
C166  H106  1.107970 S    
C235  C236  1.530866 S    
C56   O84   1.405552 S    
C125  H11   1.104521 S    
C159  H89   1.110726 S    
C163  C164  1.524702 S    
C5    C117  1.453553 S    
C212  H213  1.111769 S    
C130  H23   1.103904 S    
C109  N17   1.437634 S    
C141  H47   1.110679 S    
C25   O53   1.393375 S    
C216  H223  1.109849 S    
Zn1   O1    1.947399 S    
Zn2   O14   1.938016 S    
C27   O55   1.390218 S    
C229  C230  1.526937 S    
C147  H62   1.108830 S    
Zn1   O39   1.937892 S    
C174  H126  1.110786 S    
C16   C45   1.493789 S    
Zn2   O40   1.932961 S    
C228  H250  1.111050 S    
C164  C165  1.527013 S    
Zn3   O37   1.937439 S    
C73   C85   1.416336 A    
C225  H244  1.110397 S    
C155  C156  1.526700 S    
C175  C176  1.532097 S    
Zn12  O2    1.946490 S    
C71   C83   1.418531 A    
C135  H33   1.110006 S    
C144  H55   1.110096 S    
C116  N24   1.438864 S    
C237  H272  1.110698 S    
C110  N18   1.438397 S    
C79   C105  1.413196 A    
C57   N1    1.439136 S    
C172  H121  1.108933 S    
Zn7   O51   1.937330 S    
C162  H98   1.110741 S    
C125  H10   1.110153 S    
N14   O112  1.300854 A    
C192  H166  1.111270 S    
C134  C135  1.526528 S    
C52   O80   1.399448 S    
C202  H190  1.111070 S    
C126  H13   1.110032 S    
C55   O83   1.403872 S    
C145  H57   1.110253 S    
C36   C52   1.368150 D    
O76   C190  1.414923 S    
C229  H254  1.112219 S    
O6    C2    1.276002 A    
C131  H25   1.108514 S    
C140  H45   1.111282 S    
O18   C8    1.278735 A    
O82   C208  1.411467 S    
C170  H116  1.108917 S    
C225  H245  1.110564 S    
C99   C111  1.410063 A    
C182  H143  1.111918 S    
C41   O69   1.405279 S    
C238  H275  1.112822 S    
C169  H114  1.106962 S    
O10   C4    1.275702 A    
C200  H185  1.111294 S    
C32   C48   1.356329 D    
C39   C55   1.359278 D    
C161  H94   1.110794 S    
C141  H49   1.110725 S    
C111  N19   1.438134 S    
C227  H248  1.111064 S    
C200  C201  1.525823 S    
C138  H40   1.111001 S    
Zn14  O30   1.936760 S    
C35   O63   1.396899 S    
C168  H111  1.107471 S    
C184  H148  1.111212 S    
C11   C44   1.484445 S    
N6    O95   1.301776 A    
C33   O61   1.391682 S    
Zn16  O34   1.937323 S    
C31   C47   1.357652 D    
C208  H204  1.110943 S    
Zn2   O44   1.935959 S    
C155  H81   1.106455 S    
O123  C235  1.420581 S    
C51   O79   1.387231 S    
O27   C15   1.279436 A    
C127  H15   1.110902 S    
Zn5   O47   1.937892 S    
Zn8   O20   1.940478 S    
Zn6   O48   1.932961 S    
C156  H83   1.110679 S    
C169  H113  1.111052 S    
Zn7   O45   1.937439 S    
N12   O108  1.300769 A    
C121  C122  1.534218 S    
O35   C23   1.278560 A    
C148  C149  1.553519 S    
C185  C186  1.523132 S    
C236  H269  1.110727 S    
N22   O136  1.300957 A    
N13   O110  1.301277 A    
C145  C146  1.552421 S    
C209  H207  1.109354 S    
C12   C41   1.490380 S    
C153  H76   1.110323 S    
O32   C20   1.290480 A    
C98   C110  1.410102 A    
C95   C103  1.409405 A    
C206  H199  1.111763 S    
C99   C105  1.419068 A    
C33   C40   1.497883 S    
C187  H156  1.113125 S    
C157  H85   1.111127 S    
N11   O105  1.301243 A    
C204  H194  1.111140 S    
C37   O65   1.388649 S    
N5    O94   1.301137 A    
C143  C144  1.525703 S    
O12   C4    1.275375 A    
C203  H193  1.109767 S    
C159  H91   1.110665 S    
C212  H214  1.109801 S    
O48   C18   1.271635 A    
C199  H183  1.111046 S    
C240  H279  1.110284 S    
C151  H72   1.103852 S    
C152  C153  1.524999 S    
O38   C12   1.276971 A    
C165  H103  1.110723 S    
C160  H93   1.117927 S    
Zn16  O10   1.937103 S    
C82   C94   1.398045 A    
C62   C68   1.405878 A    
C205  C206  1.534872 S    
Zn13  O3    1.950317 S    
C126  H12   1.110768 S    
C153  H77   1.109040 S    
Zn14  O4    1.941659 S    
C176  H129  1.111627 S    
C236  C237  1.525356 S    
C161  H95   1.109072 S    
C38   O66   1.390683 S    
C72   C78   1.420633 A    
C150  H68   1.110916 S    
N15   O114  1.301055 A    
C84   N12   1.435886 S    
C191  C192  1.525298 S    
C165  H105  1.110708 S    
O21   C9    1.291831 A    
C26   C42   1.365177 D    
C135  H35   1.110761 S    
C70   C82   1.416315 A    
Zn6   O18   1.938016 S    
C203  C204  1.525512 S    
C183  H146  1.110650 S    
C35   C38   1.504203 S    
C198  H180  1.110439 S    
C115  C119  1.403576 A    
C162  H96   1.110784 S    
C94   C102  1.415300 A    
C197  C198  1.526777 S    
C142  H50   1.110970 S    
C192  H168  1.110892 S    
O25   C13   1.283135 A    
C200  H186  1.111078 S    
C101  C107  1.418296 A    
C226  H247  1.114195 S    
C165  H104  1.107610 S    
C101  C113  1.411765 A    
O124  C238  1.413001 S    
N16   O116  1.300903 A    
C63   N7    1.438784 S    
N18   O127  1.301626 A    
C127  H16   1.116295 S    
C182  C183  1.525680 S    
C28   O56   1.394941 S    
C136  H37   1.118824 S    
C239  H276  1.111175 S    
C215  H221  1.109896 S    
C228  H252  1.110765 S    
C146  H60   1.106369 S    
C133  H29   1.113951 S    
C164  H101  1.109426 S    
C39   O67   1.391086 S    
C137  H38   1.111125 S    
C90   C98   1.413892 A    
C173  H123  1.109191 S    
O64   C154  1.424622 S    
Zn11  O1    1.945435 S    
C121  H2    1.108045 S    
O37   C11   1.271713 A    
C7    C119  1.451174 S    
C59   C65   1.405429 A    
C210  H209  1.108472 S    
C177  H133  1.110918 S    
C231  H258  1.110134 S    
C208  C209  1.531543 S    
C222  H237  1.109910 S    
Zn5   O3    1.947399 S    
Zn6   O4    1.951229 S    
C171  H117  1.110450 S    
O65   C157  1.421121 S    
C33   C49   1.365666 D    
C180  H139  1.108073 S    
C132  H27   1.108865 S    
C100  C112  1.409040 A    
N4    O92   1.301105 A    
C142  H51   1.118656 S    
C217  C218  1.527803 S    
O46   C20   1.273801 A    
C221  H234  1.111180 S    
C212  C213  1.525562 S    
N3    O89   1.301904 A    
C125  C126  1.525530 S    
C26   O54   1.392425 S    
C85   C89   1.398139 A    
O53   C121  1.425135 S    
O15   C5    1.274900 A    
C112  N20   1.438312 S    
C19   C52   1.482374 S    
C195  H173  1.110612 S    
C175  H128  1.117260 S    
C201  H187  1.110815 S    
C204  H196  1.110772 S    
C224  H241  1.111806 S    
C232  H261  1.112940 S    
C143  H52   1.111137 S    
C193  H170  1.109307 S    
N19   O129  1.301653 A    
O78   C196  1.413884 S    
C189  H161  1.110837 S    
C199  C200  1.532150 S    
O68   C166  1.419916 S    
O23   C11   1.290152 A    
C123  H7    1.107267 S    
C6    C118  1.451562 S    
C178  C179  1.533692 S    
O67   C163  1.420107 S    
Zn8   O50   1.935536 S    
C191  H164  1.111888 S    
C91   O119  1.384816 S    
Zn2   O2    1.951229 S    
C234  H265  1.110439 S    
C124  H8    1.110183 S    
O7    C1    1.279186 A    
C226  H246  1.114523 S    
O26   C14   1.278524 A    
Zn15  O31   1.934964 S    
C76   C80   1.421575 A    
C140  C141  1.526869 S    
Zn16  O32   1.934309 S    
C218  H227  1.111567 S    
C196  H176  1.111024 S    
C27   C30   1.492892 S    
O40   C10   1.275240 A    
O83   C211  1.416488 S    
N7    O98   1.301144 A    
C57   C71   1.411573 A    
C75   C79   1.421798 A    
C28   C44   1.366767 D    
C235  H268  1.117672 S    
O19   C7    1.273341 A    
Zn8   O4    1.946343 S    
C156  H82   1.109929 S    
C43   O71   1.386447 S    
C149  H66   1.109940 S    
N3    O90   1.301140 A    
C70   C78   1.421236 A    
C63   C67   1.403592 A    
C128  H18   1.110506 S    
O39   C9    1.273631 A    
C138  H41   1.110924 S    
O13   C5    1.274438 A    
C109  C117  1.403380 A    
C97   C105  1.419725 A    
C134  H32   1.110869 S    
O51   C21   1.277382 A    
C214  H218  1.108715 S    
O81   C205  1.416393 S    
C194  H172  1.109145 S    
N20   O131  1.301606 A    
C190  C191  1.533353 S    
C115  N23   1.441200 S    
C163  H99   1.109263 S    
O20   C8    1.274504 A    
C196  H177  1.108495 S    
N10   O104  1.301012 A    
O44   C14   1.293441 A    
O73   C181  1.414926 S    
O55   C127  1.421340 S    
C171  H118  1.107362 S    
O54   C124  1.434463 S    
N21   O134  1.301243 A    
C2    C65   1.455814 S    
C31   O59   1.389935 S    
O24   C12   1.291613 A    
Zn11  O27   1.934839 S    
C220  H233  1.112397 S    
C181  H142  1.113037 S    
C34   C50   1.365440 D    
C137  C138  1.525811 S    
C188  C189  1.525477 S    
C185  H151  1.109534 S    
C96   O124  1.383672 S    
N17   O126  1.300360 A    
C61   C67   1.404246 A    
C213  H217  1.110806 S    
C69   C81   1.418273 A    
O77   C193  1.414219 S    
Zn1   O13   1.937686 S    
C153  H75   1.110873 S    
C150  H70   1.108028 S    
C179  H137  1.109122 S    
N9    O102  1.301302 A    
C64   C74   1.411319 A    
C186  H154  1.110776 S    
N11   O106  1.300924 A    
N2    O88   1.301129 A    
C137  H39   1.110803 S    
C90   O118  1.385447 S    
C227  C228  1.526525 S    
C74   C80   1.421138 A    
C158  H87   1.111091 S    
C214  C215  1.535792 S    
C87   N15   1.436097 S    
C181  C182  1.535835 S    
C159  H90   1.110216 S    
C198  H182  1.110767 S    
O79   C199  1.417063 S    
O63   C151  1.418317 S    
C217  H225  1.114114 S    
O122  C232  1.413398 S    
C141  H48   1.107519 S    
C154  H78   1.110785 S    
C122  H4    1.110268 S    
C216  H222  1.110948 S    
C103  C107  1.416791 A    
C221  C222  1.527059 S    
C116  C120  1.402641 A    
C139  H44   1.117322 S    
C158  C159  1.525758 S    
Zn3   O15   1.940118 S    
C174  H125  1.106843 S    
O42   C16   1.290299 A    
C232  C233  1.527502 S    
C179  C180  1.526808 S    
C104  C116  1.412936 A    
O119  C223  1.413369 S    
C195  H175  1.110756 S    
C29   O57   1.386503 S    
C28   C29   1.498004 S    
C135  H34   1.110439 S    
C144  H54   1.110660 S    
C37   C53   1.356634 D    
C197  H178  1.111477 S    
Zn11  O23   1.934964 S    
C172  H120  1.110985 S    
C193  H169  1.110826 S    
C177  H132  1.110528 S    
Zn13  O33   1.932391 S    
Zn9   O1    1.950317 S    
C162  H97   1.108197 S    
C197  H179  1.109134 S    
C131  H24   1.107296 S    
C83   C95   1.401175 A    
C23   C56   1.492935 S    
C206  H200  1.109957 S    
C124  C125  1.551137 S    
C145  H58   1.106108 S    
C206  C207  1.525771 S    
C29   C45   1.361042 D    
O59   C139  1.419397 S    
C218  C219  1.525354 S    
O70   C172  1.413977 S    
C170  H115  1.111492 S    
C57   C65   1.405125 A    
N23   O137  1.301527 A    
C71   C77   1.422310 A    
C47   O75   1.405282 S    
N23   O138  1.301318 A    
Zn4   O38   1.935409 S    
C237  H271  1.110882 S    
Zn7   O19   1.940118 S    
C15   C48   1.488783 S    
C149  C150  1.525689 S    
C35   C51   1.370258 D    
C58   C72   1.410588 A    
O33   C21   1.293437 A    
C233  H262  1.111242 S    
C84   C96   1.397799 A    
C227  H249  1.111412 S    
C207  H203  1.110787 S    
C131  C132  1.527040 S    
C168  H110  1.110634 S    
Zn7   O3    1.942563 S    
O62   C148  1.433579 S    
C229  H253  1.114196 S    
N15   O113  1.301298 A    
N1    O86   1.301142 A    
C27   C43   1.361681 D    
C24   C53   1.487795 S    
C83   N11   1.435848 S    
C129  H19   1.110898 S    
C230  H255  1.110638 S    
C26   C31   1.497523 S    
C211  C212  1.534917 S    
C95   O123  1.387808 S    
Zn6   O52   1.935959 S    
C223  H239  1.114268 S    
C148  H65   1.106184 S    
C111  C117  1.402751 A    
C224  C225  1.525489 S    
O56   C130  1.426542 S    
C138  H42   1.110707 S    
C189  H160  1.109991 S    
C123  H6    1.109936 S    
O36   C24   1.278338 A    
O60   C142  1.420334 S    
C45   O73   1.405743 S    
C188  H157  1.111962 S    
C104  C108  1.420774 A    
C166  C167  1.524862 S    
C81   C93   1.400285 A    
C207  H202  1.110275 S    
C184  H149  1.111845 S    
N13   O109  1.301330 A    
C163  H100  1.115859 S    
C154  C155  1.535829 S    
C25   C41   1.367205 D    
C213  H215  1.111029 S    
Zn13  O11   1.937429 S    
C59   C69   1.412037 A    
Zn14  O12   1.939523 S    
C20   C49   1.481767 S    
C134  H31   1.111335 S    
C9    C42   1.480287 S    
C174  H124  1.110501 S    
C62   N6    1.439244 S    
O30   C18   1.288381 A    
C113  N21   1.438938 S    
