data_mof_unit_1182.cif
_audit_creation_date              2012-12-11T15:22:19-0500
_audit_creation_method            fapswitch 2.2
_symmetry_space_group_name_H-M    P1
_symmetry_Int_Tables_number       1
_space_group_crystal_system       triclinic
_cell_length_a                    22.623447
_cell_length_b                    12.93478
_cell_length_c                    26.952702
_cell_angle_alpha                 90.299496
_cell_angle_beta                  90.273102
_cell_angle_gamma                 90.204089
_cell_volume                      7886.90249533

loop_
_atom_site_label
_atom_site_type_symbol
_atom_type_description
_atom_site_fract_x
_atom_site_fract_y
_atom_site_fract_z
_atom_type_partial_charge
C1    C     C_R   0.720023 0.343568 0.177689 0.535069
C2    C     C_R   0.295087 0.305765 0.826749 0.551144
C3    C     C_R   0.220097 0.844446 0.177854 0.535948
C4    C     C_R   0.779940 0.845776 0.821872 0.537650
C5    C     C_R   0.477984 0.160057 0.870488 -0.009674
C6    C     C_R   0.530277 0.160056 0.125082 -0.024615
C7    C     C_R   0.979807 0.662347 0.869730 -0.010895
C8    C     C_R   0.026722 0.655596 0.125906 -0.022587
C9    C     C_R   0.525832 0.257112 0.101079 0.377727
C10   C     C_R   0.490089 0.255604 0.893986 0.367020
C11   C     C_R   0.016255 0.751801 0.102834 0.375527
C12   C     C_R   0.985224 0.757612 0.895234 0.376165
C13   C     C_R   0.513742 0.261590 0.049980 -0.027848
C14   C     C_R   0.498999 0.259660 0.945696 -0.035340
C15   C     C_R   0.004136 0.756400 0.051745 -0.023910
C16   C     C_R   0.992946 0.759156 0.947113 -0.029719
C17   C     C_R   0.495415 0.171075 0.025405 -0.083513
C18   C     C_R   0.488030 0.169938 0.973671 -0.079979
C19   C     C_R   0.994771 0.664022 0.025283 -0.080699
C20   C     C_R   0.989336 0.665338 0.973221 -0.079644
C21   C     C_R   0.521310 0.352943 0.022416 0.382723
C22   C     C_R   0.515642 0.351320 0.970601 0.360591
C23   C     C_R   0.002788 0.850805 0.025959 0.374141
C24   C     C_R   0.999670 0.851959 0.974043 0.366723
C25   C     C_R   0.733538 0.975259 0.127339 0.032275
C26   C     C_R   0.264891 0.968736 0.871438 0.035011
C27   C     C_R   0.240542 0.455618 0.131121 0.027582
C28   C     C_R   0.761475 0.453858 0.869177 0.021423
C29   C     C_R   0.765127 0.890096 0.109939 -0.141740
C30   C     C_R   0.225266 0.892365 0.886790 -0.125956
C31   C     C_R   0.285837 0.384612 0.121977 -0.127414
C32   C     C_R   0.706609 0.418386 0.886161 -0.123759
C33   C     C_R   0.766656 0.870139 0.059046 -0.129855
C34   C     C_R   0.222588 0.866618 0.936998 -0.115531
C35   C     C_R   0.296175 0.350462 0.073506 -0.117116
C36   C     C_R   0.700606 0.387264 0.935577 -0.108143
C37   C     C_R   0.737877 0.936859 0.025782 0.022559
C38   C     C_R   0.257874 0.920184 0.971766 0.020338
C39   C     C_R   0.262173 0.389465 0.034158 0.020767
C40   C     C_R   0.748558 0.397391 0.968709 0.018304
C41   C     C_R   0.704194 0.019138 0.043650 -0.139791
C42   C     C_R   0.298625 0.994115 0.955875 -0.139533
C43   C     C_R   0.216233 0.458854 0.043733 -0.138637
C44   C     C_R   0.804076 0.425670 0.950548 -0.142047
C45   C     C_R   0.556948 0.156068 0.175568 0.560088
C46   C     C_R   0.447952 0.157020 0.821645 0.553552
C47   C     C_R   0.055566 0.655463 0.176007 0.565863
C48   C     C_R   0.948284 0.657430 0.821460 0.557214
C49   C     C_R   0.702359 0.038600 0.094260 -0.128027
C50   C     C_R   0.302412 0.017750 0.905900 -0.123827
C51   C     C_R   0.205918 0.492550 0.091878 -0.136233
C52   C     C_R   0.810631 0.452801 0.901207 -0.128288
C53   C     C_R   0.699436 0.902750 0.941199 -0.143690
C54   C     C_R   0.295331 0.866412 0.053837 -0.135160
C55   C     C_R   0.231011 0.308430 0.955657 -0.146615
C56   C     C_R   0.779857 0.324577 0.048891 -0.147197
C57   C     C_R   0.708455 0.881010 0.890906 -0.155110
C58   C     C_R   0.288124 0.850498 0.104631 -0.136793
C59   C     C_R   0.238098 0.286362 0.905465 -0.143408
C60   C     C_R   0.776849 0.315876 0.100156 -0.142949
C61   C     C_R   0.812314 0.920325 0.901785 -0.108685
C62   C     C_R   0.191056 0.927961 0.099389 -0.109390
C63   C     C_R   0.332777 0.373601 0.907477 -0.117798
C64   C     C_R   0.699691 0.444842 0.101709 -0.080703
C65   C     C_R   0.804342 0.940975 0.952064 -0.010442
C66   C     C_R   0.196384 0.939808 0.048177 -0.011855
C67   C     C_R   0.326729 0.394829 0.958237 -0.007924
C68   C     C_R   0.702078 0.454016 0.050022 0.010007
C69   C     C_R   0.747494 0.926999 0.972353 0.044536
C70   C     C_R   0.249071 0.907112 0.025116 0.039315
C71   C     C_R   0.274763 0.361725 0.982444 0.039941
C72   C     C_R   0.741340 0.389649 0.022998 0.031231
C73   C     C_R   0.765399 0.885741 0.871462 0.010149
C74   C     C_R   0.235292 0.879473 0.127603 0.005003
C75   C     C_R   0.287930 0.322387 0.880501 -0.001891
C76   C     C_R   0.735272 0.373452 0.126820 0.003189
C77   C     C_R   0.527628 0.169934 0.370870 0.021473
C78   C     C_R   0.472622 0.169358 0.629222 0.021736
C79   C     C_R   0.027618 0.669932 0.370866 0.021917
C80   C     C_R   0.972611 0.669361 0.629217 0.022232
C81   C     C_R   0.537124 0.261433 0.398174 -0.120193
C82   C     C_R   0.464401 0.261342 0.602543 -0.119697
C83   C     C_R   0.037101 0.761437 0.398168 -0.119739
C84   C     C_R   0.964374 0.761339 0.602536 -0.119720
C85   C     C_R   0.525948 0.264309 0.448848 -0.109755
C86   C     C_R   0.475847 0.264434 0.551939 -0.109696
C87   C     C_R   0.025917 0.764314 0.448841 -0.109723
C88   C     C_R   0.975813 0.764431 0.551931 -0.109777
C89   C     C_R   0.731021 0.001982 0.179505 0.535003
C90   C     C_R   0.268796 0.001698 0.820202 0.529882
C91   C     C_R   0.231646 0.500450 0.180118 0.536742
C92   C     C_R   0.768753 0.501242 0.820298 0.540450
C93   C     C_R   0.504111 0.176333 0.472936 0.030414
C94   C     C_R   0.496708 0.176180 0.527278 0.030292
C95   C     C_R   0.004085 0.676334 0.472929 0.030381
C96   C     C_R   0.996682 0.676183 0.527271 0.030305
C97   C     C_R   0.490497 0.087491 0.444876 -0.119946
C98   C     C_R   0.509134 0.086737 0.554731 -0.120343
C99   C     C_R   0.990483 0.587484 0.444870 -0.119924
C100  C     C_R   0.009121 0.586747 0.554725 -0.120373
C101  C     C_R   0.502487 0.083981 0.394296 -0.122771
C102  C     C_R   0.496851 0.083024 0.605255 -0.123364
C103  C     C_R   0.002481 0.583974 0.394291 -0.122596
C104  C     C_R   0.996845 0.583033 0.605250 -0.123196
C105  C     C_R   0.733367 0.978572 0.375949 0.041493
C106  C     C_R   0.266932 0.979041 0.623922 0.041813
C107  C     C_R   0.233382 0.478512 0.375937 0.041757
C108  C     C_R   0.766937 0.479056 0.623920 0.042266
C109  C     C_R   0.726262 0.877302 0.393081 -0.127330
C110  C     C_R   0.272815 0.877779 0.606122 -0.127538
C111  C     C_R   0.226195 0.377243 0.393050 -0.127621
C112  C     C_R   0.772736 0.377783 0.606114 -0.127439
C113  C     C_R   0.723250 0.859107 0.444108 -0.113124
C114  C     C_R   0.276056 0.860108 0.555007 -0.112319
C115  C     C_R   0.223185 0.359010 0.444073 -0.113170
C116  C     C_R   0.775980 0.360120 0.554999 -0.112352
C117  C     C_R   0.724502 0.942652 0.477649 0.053043
C118  C     C_R   0.276182 0.944094 0.522145 0.053092
C119  C     C_R   0.224517 0.442525 0.477629 0.053040
C120  C     C_R   0.776186 0.444115 0.522142 0.053084
C121  C     C_R   0.728549 0.043922 0.459940 -0.060086
C122  C     C_R   0.273411 0.045259 0.540540 -0.060856
C123  C     C_R   0.228640 0.543801 0.459940 -0.060171
C124  C     C_R   0.773492 0.545282 0.540542 -0.060936
C125  C     C_R   0.733761 0.061628 0.409529 -0.100559
C126  C     C_R   0.268040 0.062516 0.591021 -0.099682
C127  C     C_R   0.233856 0.561538 0.409533 -0.100376
C128  C     C_R   0.768126 0.562538 0.591024 -0.099672
C129  C     C_R   0.787694 0.958424 0.551181 0.357081
C130  C     C_R   0.213382 0.961449 0.448666 0.357089
C131  C     C_R   0.287775 0.458092 0.551122 0.357237
C132  C     C_R   0.713416 0.461567 0.448649 0.357143
C133  C     C_R   0.720674 0.347542 0.321734 0.536227
C134  C     C_R   0.279403 0.347123 0.678175 0.546658
C135  C     C_R   0.220673 0.847541 0.321734 0.536435
C136  C     C_R   0.779398 0.847135 0.678177 0.536735
C137  C     C_R   0.800939 0.940312 0.600486 -0.099844
C138  C     C_R   0.199948 0.942930 0.399336 -0.100672
C139  C     C_R   0.301017 0.440037 0.600431 -0.100268
C140  C     C_R   0.699980 0.443026 0.399320 -0.100643
C141  C     C_R   0.704965 0.861283 0.611472 -0.137581
C142  C     C_R   0.295384 0.862868 0.388130 -0.137866
C143  C     C_R   0.204966 0.361328 0.611476 -0.137597
C144  C     C_R   0.795381 0.362823 0.388137 -0.137705
C145  C     C_R   0.690330 0.877633 0.561367 -0.046038
C146  C     C_R   0.310084 0.879287 0.438261 -0.047286
C147  C     C_R   0.190336 0.377613 0.561364 -0.046027
C148  C     C_R   0.810082 0.379267 0.438266 -0.047286
C149  C     C_R   0.733347 0.925477 0.530867 0.026609
C150  C     C_R   0.267396 0.927694 0.468864 0.026933
C151  C     C_R   0.233384 0.425297 0.530838 0.026630
C152  C     C_R   0.767409 0.427742 0.468859 0.026972
C153  C     C_R   0.760427 0.888461 0.630395 -0.057112
C154  C     C_R   0.240021 0.890096 0.369362 -0.057057
C155  C     C_R   0.260457 0.388390 0.630375 -0.058286
C156  C     C_R   0.740031 0.390108 0.369359 -0.056934
C157  C     C_R   0.554223 0.159133 0.321593 0.541995
C158  C     C_R   0.445776 0.158964 0.678408 0.542793
C159  C     C_R   0.054221 0.659132 0.321592 0.543067
C160  C     C_R   0.945774 0.658964 0.678406 0.538880
C161  C     C_R   0.730960 0.003736 0.323551 0.536107
C162  C     C_R   0.269022 0.003645 0.676430 0.536161
C163  C     C_R   0.230963 0.503726 0.323546 0.534312
C164  C     C_R   0.769021 0.503642 0.676430 0.534970
C165  C     C_R   0.516268 0.067253 0.097752 -0.066428
C166  C     C_R   0.480516 0.067317 0.898703 -0.053913
C167  C     C_R   0.016239 0.560495 0.098294 -0.068810
C168  C     C_R   0.989452 0.568783 0.895902 -0.059123
C169  C     C_R   0.487620 0.078770 0.051885 0.037319
C170  C     C_R   0.473190 0.076121 0.949954 0.027259
C171  C     C_R   0.991565 0.568984 0.050343 0.039255
C172  C     C_R   0.982246 0.571188 0.947423 0.028603
C173  C     C_R   0.450949 0.994237 0.978362 -0.138871
C174  C     C_R   0.455763 0.998066 0.029556 -0.125170
C175  C     C_R   0.964661 0.483427 0.973837 -0.140186
C176  C     C_R   0.965640 0.485212 0.025188 -0.121505
Cr1   Cr    Cr6+3 0.756570 0.170940 0.251190 1.018584
Cr2   Cr    Cr6+3 0.243430 0.170940 0.748810 1.013609
Cr3   Cr    Cr6+3 0.256570 0.670940 0.251190 1.018547
Cr4   Cr    Cr6+3 0.743430 0.670940 0.748810 1.019079
Cr5   Cr    Cr6+3 0.623740 0.299110 0.249580 1.072935
Cr6   Cr    Cr6+3 0.376260 0.299110 0.750420 1.061894
Cr7   Cr    Cr6+3 0.123740 0.799110 0.249580 1.071399
Cr8   Cr    Cr6+3 0.876260 0.799110 0.750420 1.070619
Cr9   Cr    Cr6+3 0.625990 0.036240 0.250480 1.006468
Cr10  Cr    Cr6+3 0.374010 0.036240 0.749520 1.004897
Cr11  Cr    Cr6+3 0.125990 0.536240 0.250480 1.004771
Cr12  Cr    Cr6+3 0.874010 0.536240 0.749520 1.010457
H1    H     H_    0.856527 0.926638 0.886801 0.185461
H2    H     H_    0.150109 0.951172 0.116823 0.177370
H3    H     H_    0.372471 0.398789 0.888656 0.183678
H4    H     H_    0.667873 0.490268 0.122297 0.159040
H5    H     H_    0.681714 0.070809 0.018349 0.118413
H6    H     H_    0.325581 0.036512 0.982412 0.127306
H7    H     H_    0.189805 0.489679 0.013647 0.115004
H8    H     H_    0.841549 0.433313 0.975410 0.114030
H9    H     H_    0.677473 0.104448 0.107712 0.116631
H10   H     H_    0.333286 0.077046 0.894215 0.115392
H11   H     H_    0.172260 0.550378 0.098310 0.108892
H12   H     H_    0.853516 0.479988 0.889035 0.135095
H13   H     H_    0.557095 0.328703 0.381218 0.137452
H14   H     H_    0.445227 0.328993 0.619911 0.137902
H15   H     H_    0.057068 0.828710 0.381212 0.137695
H16   H     H_    0.945192 0.828984 0.619904 0.137831
H17   H     H_    0.526822 0.018741 0.536830 0.099094
H18   H     H_    0.472074 0.019773 0.462327 0.099713
H19   H     H_    0.026817 0.518759 0.536824 0.099087
H20   H     H_    0.972066 0.519761 0.462320 0.099717
H21   H     H_    0.503731 0.011304 0.624991 0.125580
H22   H     H_    0.494663 0.012635 0.374060 0.125476
H23   H     H_    0.003735 0.511318 0.624988 0.125596
H24   H     H_    0.994665 0.512624 0.374056 0.125500
H25   H     H_    0.537207 0.333736 0.469476 0.137515
H26   H     H_    0.465512 0.334322 0.531787 0.137657
H27   H     H_    0.037168 0.833746 0.469469 0.137555
H28   H     H_    0.965468 0.834313 0.531779 0.137592
H29   H     H_    0.724239 0.813002 0.367222 0.110993
H30   H     H_    0.273699 0.813168 0.631508 0.111874
H31   H     H_    0.224107 0.312972 0.367178 0.110603
H32   H     H_    0.773553 0.313162 0.631495 0.111491
H33   H     H_    0.844355 0.961634 0.614329 0.152622
H34   H     H_    0.156685 0.964514 0.385552 0.151928
H35   H     H_    0.344460 0.461243 0.614253 0.152680
H36   H     H_    0.656730 0.464664 0.385526 0.151809
H37   H     H_    0.431408 0.926282 0.961253 0.113187
H38   H     H_    0.438297 0.935022 0.051311 0.104315
H39   H     H_    0.949747 0.413789 0.955106 0.103960
H40   H     H_    0.946930 0.420736 0.044763 0.107040
H41   H     H_    0.721918 0.780280 0.457416 0.122430
H42   H     H_    0.276459 0.781425 0.541079 0.119658
H43   H     H_    0.221793 0.280175 0.457366 0.122362
H44   H     H_    0.776326 0.281439 0.541065 0.119720
H45   H     H_    0.674688 0.823287 0.636249 0.138535
H46   H     H_    0.325427 0.824375 0.363273 0.139150
H47   H     H_    0.174659 0.323483 0.636279 0.138939
H48   H     H_    0.825411 0.324263 0.363293 0.139417
H49   H     H_    0.730154 0.108979 0.485435 0.128457
H50   H     H_    0.272869 0.110603 0.515521 0.129256
H51   H     H_    0.230309 0.608832 0.485447 0.128438
H52   H     H_    0.773011 0.610633 0.515526 0.129294
H53   H     H_    0.736984 0.140644 0.396565 0.123337
H54   H     H_    0.265783 0.141453 0.604581 0.122971
H55   H     H_    0.237140 0.640558 0.396585 0.123510
H56   H     H_    0.765933 0.641477 0.604590 0.123394
H57   H     H_    0.788600 0.840245 0.135411 0.116728
H58   H     H_    0.196677 0.853493 0.860238 0.122352
H59   H     H_    0.313241 0.356686 0.152078 0.119805
H60   H     H_    0.668495 0.416975 0.861703 0.154007
H61   H     H_    0.655587 0.894633 0.956645 0.105668
H62   H     H_    0.336320 0.844022 0.036408 0.101876
H63   H     H_    0.190796 0.285851 0.973885 0.111691
H64   H     H_    0.811813 0.279205 0.028924 0.109115
H65   H     H_    0.671894 0.856028 0.867794 0.121422
H66   H     H_    0.322910 0.812921 0.125482 0.129105
H67   H     H_    0.204510 0.242413 0.886024 0.136182
H68   H     H_    0.804929 0.259984 0.118446 0.143144
H69   H     H_    0.791903 0.805024 0.045372 0.109716
H70   H     H_    0.191773 0.807653 0.948987 0.110578
H71   H     H_    0.331128 0.295320 0.066548 0.113917
H72   H     H_    0.658109 0.359811 0.948338 0.137555
O1    O     O_R   0.769900 0.064540 0.196060 -0.501430
O2    O     O_R   0.230100 0.064540 0.803940 -0.514087
O3    O     O_R   0.269900 0.564540 0.196060 -0.501725
O4    O     O_R   0.730100 0.564540 0.803940 -0.506508
O5    O     O_R   0.574760 0.239320 0.300850 -0.505207
O6    O     O_R   0.425240 0.239320 0.699150 -0.502653
O7    O     O_R   0.074760 0.739320 0.300850 -0.503639
O8    O     O_R   0.925240 0.739320 0.699150 -0.505608
O9    O     O_R   0.566290 0.069580 0.305400 -0.515378
O10   O     O_R   0.433710 0.069580 0.694600 -0.517419
O11   O     O_R   0.066290 0.569580 0.305400 -0.516012
O12   O     O_R   0.933710 0.569580 0.694600 -0.519530
O13   O     O_R   0.680760 0.993330 0.302620 -0.497784
O14   O     O_R   0.319240 0.993330 0.697380 -0.495734
O15   O     O_R   0.180760 0.493330 0.302620 -0.498211
O16   O     O_R   0.819240 0.493330 0.697380 -0.497713
O17   O     O_3   0.668770 0.168760 0.250420 -0.258099
O18   O     O_3   0.331230 0.168760 0.749580 -0.275571
O19   O     O_3   0.168770 0.668760 0.250420 -0.255632
O20   O     O_3   0.831230 0.668760 0.749580 -0.254009
O21   O     O_R   0.750800 0.274080 0.199250 -0.509535
O22   O     O_R   0.249200 0.274080 0.800750 -0.501692
O23   O     O_R   0.250800 0.774080 0.199250 -0.502545
O24   O     O_R   0.749200 0.774080 0.800750 -0.501402
O25   O     O_R   0.669990 0.371670 0.194150 -0.485164
O26   O     O_R   0.330010 0.371670 0.805850 -0.498792
O27   O     O_R   0.169990 0.871670 0.194150 -0.500788
O28   O     O_R   0.830010 0.871670 0.805850 -0.501462
O29   O     O_R   0.574600 0.238480 0.197800 -0.418369
O30   O     O_R   0.425400 0.238480 0.802200 -0.450850
O31   O     O_R   0.074600 0.738480 0.197800 -0.418372
O32   O     O_R   0.925400 0.738480 0.802200 -0.428085
O33   O     O_R   0.566130 0.068680 0.194240 -0.555053
O34   O     O_R   0.433870 0.068680 0.805760 -0.551124
O35   O     O_R   0.066130 0.568680 0.194240 -0.559673
O36   O     O_R   0.933870 0.568680 0.805760 -0.552355
O37   O     O_R   0.680610 0.992490 0.199570 -0.516270
O38   O     O_R   0.319390 0.992490 0.800430 -0.504232
O39   O     O_R   0.180610 0.492490 0.199570 -0.515262
O40   O     O_R   0.819390 0.492490 0.800430 -0.505490
O41   O     O_R   0.770060 0.065440 0.307230 -0.509880
O42   O     O_R   0.229940 0.065440 0.692770 -0.509374
O43   O     O_R   0.270060 0.565440 0.307230 -0.512010
O44   O     O_R   0.729940 0.565440 0.692770 -0.510263
O45   O     O_R   0.750960 0.274920 0.302300 -0.507472
O46   O     O_R   0.249040 0.274920 0.697700 -0.503292
O47   O     O_R   0.250960 0.774920 0.302300 -0.508097
O48   O     O_R   0.749040 0.774920 0.697700 -0.508887
O49   O     O_R   0.670160 0.372580 0.305320 -0.524674
O50   O     O_R   0.329840 0.372580 0.694680 -0.518200
O51   O     O_R   0.170160 0.872580 0.305320 -0.523682
O52   O     O_R   0.829840 0.872580 0.694680 -0.523023
C177  C     C_3   0.490589 0.960749 0.874996 -0.228064
C178  C     C_3   0.540843 0.898948 0.898991 -0.332479
C179  C     C_3   0.548437 0.795571 0.872049 -0.446435
H73   H     H_    0.507611 0.748164 0.875317 0.179363
H74   H     H_    0.558355 0.808075 0.832198 0.152434
H75   H     H_    0.585536 0.752151 0.888542 0.152003
H76   H     H_    0.582339 0.944539 0.896318 0.164381
H77   H     H_    0.532468 0.882814 0.938666 0.167349
H78   H     H_    0.448728 0.915489 0.875480 0.159638
H79   H     H_    0.505416 0.968922 0.836091 0.182827
C180  C     C_3   0.542748 0.961072 0.111923 -0.233418
C181  C     C_3   0.556225 0.882929 0.069780 -0.318440
C182  C     C_3   0.598543 0.798612 0.087013 -0.452992
H80   H     H_    0.642055 0.831876 0.097434 0.169347
H81   H     H_    0.579849 0.756872 0.119286 0.168903
H82   H     H_    0.605085 0.742744 0.056301 0.152476
H83   H     H_    0.515839 0.841427 0.057589 0.162511
H84   H     H_    0.576224 0.923485 0.037640 0.173413
H85   H     H_    0.587467 0.975773 0.127148 0.198027
H86   H     H_    0.514816 0.923766 0.140564 0.159999
C183  C     C_3   0.005230 0.467659 0.869403 -0.232756
C184  C     C_3   0.059457 0.412985 0.891549 -0.317553
C185  C     C_3   0.070936 0.311868 0.863809 -0.442396
H87   H     H_    0.030980 0.261709 0.864365 0.168595
H88   H     H_    0.083464 0.327527 0.824755 0.161078
H89   H     H_    0.107268 0.269569 0.882072 0.142823
H90   H     H_    0.098960 0.463920 0.888562 0.170905
H91   H     H_    0.053117 0.394414 0.931252 0.165553
H92   H     H_    0.966273 0.415048 0.869614 0.152432
H93   H     H_    0.017491 0.482786 0.830282 0.176922
C186  C     C_3   0.040738 0.455426 0.117062 -0.232870
C187  C     C_3   0.048223 0.360846 0.082293 -0.329124
C188  C     C_3   0.090624 0.281567 0.104673 -0.448978
H94   H     H_    0.136560 0.311807 0.105152 0.164667
H95   H     H_    0.077225 0.262141 0.143124 0.167242
H96   H     H_    0.089502 0.209561 0.082215 0.160486
H97   H     H_    0.005762 0.318936 0.077863 0.160199
H98   H     H_    0.065815 0.384876 0.045661 0.172858
H99   H     H_    0.087024 0.470937 0.128259 0.194121
H100  H     H_    0.014567 0.430411 0.149702 0.170327
F1    F     F_    0.829552 0.003476 0.522366 -0.655119
F2    F     F_    0.171933 0.007328 0.477638 -0.655784
F3    F     F_    0.329670 0.502959 0.522279 -0.655078
F4    F     F_    0.671987 0.507531 0.477609 -0.655789
C189  C     C_3   0.630522 0.843399 0.540486 -0.248360
C190  C     C_3   0.587712 0.799091 0.579534 -0.302355
C191  C     C_3   0.528798 0.766439 0.557324 -0.448991
H101  H     H_    0.505398 0.834484 0.542126 0.141851
H102  H     H_    0.536374 0.707186 0.528189 0.176788
H103  H     H_    0.500702 0.731896 0.586610 0.157372
H104  H     H_    0.607463 0.729079 0.596610 0.180596
H105  H     H_    0.579215 0.858099 0.608771 0.155406
H106  H     H_    0.609406 0.910764 0.522314 0.140914
H107  H     H_    0.637907 0.783171 0.511707 0.168679
C192  C     C_3   0.369492 0.844151 0.459129 -0.249133
C193  C     C_3   0.412302 0.800258 0.419899 -0.302629
C194  C     C_3   0.471017 0.767613 0.442068 -0.449246
H108  H     H_    0.494544 0.835603 0.457836 0.142005
H109  H     H_    0.463113 0.708085 0.470756 0.176782
H110  H     H_    0.499150 0.733426 0.412634 0.156806
H111  H     H_    0.392390 0.730327 0.402294 0.179480
H112  H     H_    0.421099 0.859494 0.391083 0.155852
H113  H     H_    0.390912 0.910964 0.478063 0.141230
H114  H     H_    0.361468 0.783471 0.487312 0.167491
C195  C     C_3   0.130501 0.343474 0.540503 -0.248365
C196  C     C_3   0.087685 0.299241 0.579566 -0.302330
C197  C     C_3   0.028765 0.266584 0.557368 -0.449108
H115  H     H_    0.005379 0.334610 0.542137 0.141867
H116  H     H_    0.036330 0.207269 0.528260 0.176764
H117  H     H_    0.000660 0.232117 0.586668 0.157209
H118  H     H_    0.107425 0.229242 0.596664 0.180543
H119  H     H_    0.079200 0.358293 0.608784 0.155629
H120  H     H_    0.109414 0.410866 0.522331 0.140953
H121  H     H_    0.137844 0.283224 0.511727 0.168586
C198  C     C_3   0.869477 0.344090 0.459145 -0.249195
C199  C     C_3   0.912281 0.300145 0.419924 -0.302524
C200  C     C_3   0.970993 0.267503 0.442100 -0.449143
H122  H     H_    0.994530 0.335506 0.457845 0.141935
H123  H     H_    0.963084 0.208017 0.470808 0.176840
H124  H     H_    0.999119 0.233265 0.412675 0.156993
H125  H     H_    0.892361 0.230207 0.402334 0.179783
H126  H     H_    0.921086 0.359353 0.391096 0.155967
H127  H     H_    0.890912 0.410896 0.478073 0.141232
H128  H     H_    0.861431 0.283432 0.487335 0.167624
F5    F     F_    0.491872 0.343628 0.866723 -0.585922
F6    F     F_    0.539533 0.345726 0.125979 -0.569616
F7    F     F_    0.980182 0.847780 0.869926 -0.581784
F8    F     F_    0.024055 0.841066 0.128933 -0.577454
F9    F     F_    0.526746 0.439517 0.945095 -0.599993
F10   F     F_    0.535225 0.443613 0.045221 -0.600743
F11   F     F_    0.003882 0.943986 0.950369 -0.616145
F12   F     F_    0.004235 0.942255 0.050755 -0.618955
C201  C     C_3   0.857685 0.975265 0.982465 -0.242335
C202  C     C_3   0.853213 0.088306 0.999130 -0.304845
C203  C     C_3   0.910078 0.124052 0.024875 -0.408887
H129  H     H_    0.917647 0.078420 0.059086 0.226845
H130  H     H_    0.948353 0.114941 0.999630 0.215154
H131  H     H_    0.906793 0.206879 0.035365 0.102698
H132  H     H_    0.844949 0.138218 0.966367 0.168274
H133  H     H_    0.816112 0.097508 0.025443 0.178099
H134  H     H_    0.864540 0.924098 0.014806 0.161457
H135  H     H_    0.898034 0.967977 0.959705 0.219126
C204  C     C_3   0.143521 0.981124 0.019767 -0.238221
C205  C     C_3   0.153094 0.090313 0.999790 -0.313920
C206  C     C_3   0.095982 0.131357 0.976595 -0.416569
H136  H     H_    0.085823 0.088469 0.941782 0.227829
H137  H     H_    0.058415 0.123127 0.002633 0.205536
H138  H     H_    0.100438 0.214494 0.967797 0.108183
H139  H     H_    0.167130 0.142276 0.030649 0.158629
H140  H     H_    0.188118 0.090503 0.971174 0.183946
H141  H     H_    0.130540 0.927438 0.989432 0.172135
H142  H     H_    0.105172 0.984553 0.044982 0.226697
C207  C     C_3   0.375936 0.453393 0.984573 -0.247306
C208  C     C_3   0.359490 0.565658 0.996581 -0.297155
C209  C     C_3   0.412445 0.623379 0.018855 -0.413594
H143  H     H_    0.426899 0.585856 0.053834 0.206508
H144  H     H_    0.449859 0.624167 0.992297 0.203032
H145  H     H_    0.400170 0.704416 0.027241 0.112138
H146  H     H_    0.345261 0.605471 0.962092 0.169176
H147  H     H_    0.322632 0.568570 0.023512 0.183334
H148  H     H_    0.389572 0.412079 0.018684 0.153196
H149  H     H_    0.415286 0.455750 0.960308 0.206923
C210  C     C_3   0.661016 0.530228 0.025354 -0.219256
C211  C     C_3   0.694438 0.617566 0.998986 -0.316580
C212  C     C_3   0.659668 0.655050 0.954104 -0.427934
H150  H     H_    0.641560 0.589677 0.931871 0.198923
H151  H     H_    0.622768 0.705167 0.966433 0.152345
H152  H     H_    0.689648 0.698149 0.929462 0.159693
H153  H     H_    0.701814 0.683001 0.025160 0.151693
H154  H     H_    0.738764 0.593124 0.986374 0.184532
H155  H     H_    0.631519 0.487245 0.999687 0.222743
H156  H     H_    0.630883 0.566081 0.052877 0.184047

loop_
_geom_bond_atom_site_label_1
_geom_bond_atom_site_label_2
_ccdc_geom_bond_type
C99   C103  A    
C209  H143  S    
C189  C190  S    
C158  O6    A    
C37   C69   S    
C207  C208  S    
C142  C146  A    
C77   C101  A    
C19   C20   A    
C7    C168  A    
C47   O31   A    
C165  C169  A    
C38   C70   S    
C50   H10   S    
C89   O37   A    
C62   H2    S    
C183  C184  S    
C146  C192  S    
C108  C164  S    
C32   H60   S    
Cr10  O38   S    
C55   C59   A    
C26   C50   A    
Cr4   O4    S    
C95   C99   A    
C189  H106  S    
C29   C33   A    
C100  C104  A    
Cr7   O7    S    
C204  H142  S    
C203  H131  S    
C3    C74   S    
C9    C13   A    
C41   H5    S    
C190  H105  S    
C146  C150  A    
Cr3   O3    S    
C184  H90   S    
C12   C16   A    
C181  C182  S    
C56   C72   A    
C169  C174  A    
C161  O41   A    
Cr8   O32   S    
C12   F7    S    
C167  C186  S    
C194  H110  S    
C84   H16   S    
C6    C165  A    
C53   C69   A    
C202  H133  S    
C21   C22   A    
C61   H1    S    
C41   C49   A    
C193  C194  S    
C64   H4    S    
C18   C170  A    
C25   C29   A    
C160  O12   A    
C179  H74   S    
C27   C31   A    
C180  C181  S    
C28   C32   A    
C82   H14   S    
C62   C66   A    
C167  C171  A    
C178  C179  S    
C212  H150  S    
C60   C76   A    
C3    O27   A    
C78   C82   A    
C134  C155  S    
C54   C70   A    
C16   C20   A    
C23   F12   S    
C186  H100  S    
C137  C153  A    
C188  H96   S    
C92   O4    A    
C161  O13   A    
C140  C156  A    
C20   C172  A    
C119  C123  A    
Cr2   O2    S    
C200  H122  S    
C128  H56   S    
C89   O1    A    
C198  C199  S    
C130  C138  A    
C207  H149  S    
C91   O3    A    
C211  C212  S    
Cr12  O20   S    
C212  H152  S    
C139  H35   S    
C187  H97   S    
C30   H58   S    
C84   C88   A    
Cr9   O17   S    
Cr10  O14   S    
Cr7   O19   S    
Cr11  O19   S    
C26   C90   S    
C11   F8    S    
Cr4   O44   S    
C105  C125  A    
Cr2   O42   S    
C7    C48   S    
C8    C47   S    
C107  C127  A    
C173  H37   S    
C201  C202  S    
C205  C206  S    
C1    O21   A    
C136  C153  S    
C66   C70   A    
Cr2   O22   S    
C58   H66   S    
C174  H38   S    
Cr7   O31   S    
C185  H87   S    
C61   C65   A    
C129  C137  A    
C141  H45   S    
C33   H69   S    
C191  H101  S    
C45   O29   A    
C147  C195  S    
C117  C149  S    
C196  C197  S    
C199  H126  S    
C55   C71   A    
C2    C75   S    
C193  H112  S    
Cr4   O20   S    
C6    C9    A    
Cr6   O18   S    
C49   H9    S    
C129  C149  A    
C209  H144  S    
C64   C68   A    
Cr2   O46   S    
C164  O44   A    
Cr9   O13   S    
C65   C69   A    
C138  H34   S    
C131  F3    S    
C60   H68   S    
C43   H7    S    
C118  C122  A    
C57   C73   A    
C182  H81   S    
C168  C183  S    
Cr1   O1    S    
C85   C93   A    
C78   C158  S    
C199  C200  S    
C87   C95   A    
C126  H54   S    
C200  H124  S    
C23   C24   A    
C27   C91   S    
C52   H12   S    
C205  H140  S    
C97   H18   S    
C47   O35   A    
C110  C114  A    
C67   C71   A    
C48   O36   A    
C44   C52   A    
C132  F4    S    
C116  H44   S    
C79   C103  A    
C111  H31   S    
Cr11  O39   S    
C206  H137  S    
C27   C51   A    
C123  H51   S    
C7    C12   A    
C176  H40   S    
C30   C34   A    
C127  H55   S    
C191  H102  S    
C10   C14   A    
C184  C185  S    
C140  H36   S    
C197  H117  S    
C210  H156  S    
C131  C151  A    
C181  H83   S    
C142  C154  A    
C116  C120  A    
C192  H114  S    
C144  C156  A    
C147  C151  A    
C86   H26   S    
C121  C125  A    
C162  O42   A    
C136  O48   A    
C123  C127  A    
C139  C155  A    
C157  O9    A    
C54   C58   A    
C17   C18   A    
C112  H32   S    
C5    C166  A    
C67   C207  S    
C165  C180  S    
C4    C73   S    
Cr12  O36   S    
C51   H11   S    
C42   C50   A    
C113  C117  A    
C107  C163  S    
C183  H93   S    
C26   C30   A    
C115  C119  A    
C105  C161  S    
Cr9   O33   S    
C93   C97   A    
C112  C116  A    
Cr11  O35   S    
C58   C74   A    
C178  H76   S    
C105  C109  A    
C179  H75   S    
C39   C71   S    
C40   C72   S    
C1    C76   S    
C107  C111  A    
C148  C152  A    
C172  C175  A    
C102  H21   S    
C160  O8    A    
C141  C145  A    
Cr8   O20   S    
C171  C176  A    
C13   C17   A    
C14   C22   A    
C134  O46   A    
C162  O14   A    
C136  O52   A    
C122  H50   S    
C63   C75   A    
C96   C100  A    
C4    O24   A    
C204  H141  S    
C191  H103  S    
C203  H130  S    
C57   H65   S    
C90   O2    A    
C109  H29   S    
C211  H153  S    
Cr12  O40   S    
C184  H91   S    
C40   C44   A    
C187  C188  S    
C180  H86   S    
C46   O34   A    
C138  C154  A    
C81   C85   A    
Cr10  O18   S    
C194  H109  S    
C10   F5    S    
Cr11  O15   S    
C83   C87   A    
Cr4   O48   S    
C6    C45   S    
Cr5   O49   S    
C78   C102  A    
C133  C156  S    
C22   F9    S    
C177  H79   S    
C80   C84   A    
C1    O25   A    
C197  H115  S    
C2    O22   A    
C163  O15   A    
C15   C19   A    
Cr3   O23   S    
C135  C154  S    
C80   C104  A    
C79   C159  S    
C124  H52   S    
C80   C160  S    
C208  C209  S    
C94   C98   A    
C137  H33   S    
C175  H39   S    
C34   H70   S    
C207  H148  S    
C196  H118  S    
C118  C150  S    
C198  H128  S    
C95   C96   S    
C186  H99   S    
Cr4   O24   S    
Cr5   O25   S    
Cr9   O9    S    
C124  C128  A    
Cr7   O27   S    
Cr11  O11   S    
C179  H73   S    
C159  O11   A    
Cr5   O29   S    
Cr3   O47   S    
C133  O49   A    
C100  H19   S    
C212  H151  S    
C87   H27   S    
C187  H98   S    
C65   C201  S    
C44   H8    S    
C144  H48   S    
C83   H15   S    
C195  H120  S    
C53   C57   A    
C81   H13   S    
C61   C73   A    
C199  H125  S    
C82   C86   A    
C59   H67   S    
C33   C37   A    
C56   C60   A    
C68   C72   A    
C35   C39   A    
C48   O32   A    
C8    C167  A    
C91   O39   A    
C54   H62   S    
C113  H41   S    
Cr5   O5    S    
C202  H132  S    
C31   C35   A    
C32   C36   A    
C185  H88   S    
C29   H57   S    
C164  O16   A    
C185  H89   S    
C132  C140  A    
C157  O5    A    
C106  C126  A    
C25   C89   S    
C158  O10   A    
C143  C155  A    
C189  H107  S    
C98   C102  A    
C79   C83   A    
C43   C51   A    
C177  C178  S    
C63   H3    S    
C56   H64   S    
Cr9   O37   S    
C106  C162  S    
C182  H80   S    
Cr10  O34   S    
C25   C49   A    
C108  C112  A    
C168  C172  A    
C200  H123  S    
Cr7   O51   S    
C202  C203  S    
C62   C74   A    
C108  C128  A    
C181  H84   S    
C145  C149  A    
C170  C173  A    
C186  C187  S    
C93   C94   S    
C14   C18   A    
C192  C193  S    
C144  C148  A    
C141  C153  A    
C206  H136  S    
C135  O47   A    
C173  C174  A    
C143  C147  A    
C4    O28   A    
C92   O40   A    
C19   C171  A    
C38   C42   A    
C99   H20   S    
C193  H111  S    
C17   C169  A    
C197  H116  S    
C210  H155  S    
C159  O7    A    
C130  F2    S    
C192  H113  S    
C46   O30   A    
C143  H47   S    
C42   H6    S    
Cr2   O18   S    
C117  C121  A    
C86   C94   A    
C175  C176  A    
C24   F11   S    
C9    F6    S    
Cr6   O50   S    
C98   H17   S    
C125  H53   S    
C77   C81   A    
C178  H77   S    
C201  H135  S    
C68   C210  S    
C115  H43   S    
Cr1   O17   S    
C2    O26   A    
C163  O43   A    
C21   F10   S    
C15   C23   A    
C183  H92   S    
Cr8   O28   S    
C37   C41   A    
C31   H59   S    
C208  H146  S    
C119  C151  S    
C209  H145  S    
C63   C67   A    
C120  C152  S    
C148  C198  S    
C13   C21   A    
C35   H71   S    
C36   C40   A    
C131  C139  A    
C145  C189  S    
C39   C43   A    
Cr12  O16   S    
C195  H121  S    
C122  C126  A    
C182  H82   S    
C130  C150  A    
C85   H25   S    
Cr6   O26   S    
Cr10  O10   S    
C204  C205  S    
C203  H129  S    
Cr1   O41   S    
C64   C76   A    
C190  H104  S    
C28   C92   S    
C53   H61   S    
C205  H139  S    
Cr6   O30   S    
Cr3   O43   S    
C133  O45   A    
C195  C196  S    
C114  C118  A    
C5    C46   S    
C211  H154  S    
Cr1   O21   S    
C134  O50   A    
C11   C15   A    
Cr8   O8    S    
C55   H63   S    
C180  H85   S    
C59   C75   A    
C206  H138  S    
C194  H108  S    
C106  C110  A    
C129  F1    S    
C201  H134  S    
C88   H28   S    
C34   C38   A    
C45   O33   A    
C121  H49   S    
C177  H78   S    
C135  O51   A    
C103  H24   S    
C114  H42   S    
Cr12  O12   S    
C109  C113  A    
C101  H22   S    
C166  C177  S    
C5    C10   A    
Cr5   O17   S    
C28   C52   A    
C90   O38   A    
C188  H95   S    
Cr6   O6    S    
C8    C11   A    
C132  C152  A    
C3    O23   A    
C66   C204  S    
C166  C170  A    
C88   C96   A    
Cr1   O45   S    
C196  H119  S    
C190  C191  S    
C110  H30   S    
C198  H127  S    
Cr3   O19   S    
C210  C211  S    
C142  H46   S    
C16   C24   A    
C208  H147  S    
C111  C115  A    
Cr8   O52   S    
C104  H23   S    
C188  H94   S    
C97   C101  A    
C120  C124  A    
C36   H72   S    
C77   C157  S    
