data_mof_unit_2796.cif
_audit_creation_date              2012-12-10T18:13:25-0500
_audit_creation_method            fapswitch 2.2
_symmetry_space_group_name_H-M    P1
_symmetry_Int_Tables_number       1
_space_group_crystal_system       triclinic
_cell_length_a                    18.204633
_cell_length_b                    18.417463
_cell_length_c                    26.007976
_cell_angle_alpha                 89.612119
_cell_angle_beta                  89.800899
_cell_angle_gamma                 90.08482
_cell_volume                      8719.77391178

loop_
_atom_site_label
_atom_site_type_symbol
_atom_type_description
_atom_site_fract_x
_atom_site_fract_y
_atom_site_fract_z
_atom_type_partial_charge
C1    C     C_R   0.860749 0.140727 0.248557 0.568002
C2    C     C_R   0.827239 0.271595 0.252820 0.196628
C3    C     C_R   0.253495 0.297828 0.295361 0.240963
C4    C     C_3   0.251861 0.883398 0.137092 0.064952
C5    C     C_3   0.319146 0.908396 0.105789 -0.229971
C6    C     C_3   0.307493 0.903427 0.048097 -0.473570
C7    C     C_3   0.312347 0.883462 0.839835 0.043315
C8    C     C_3   0.295537 0.812987 0.870688 -0.295374
C9    C     C_3   0.314771 0.822378 0.927214 -0.484606
C10   C     C_3   0.711802 0.917771 0.310076 0.025341
C11   C     C_3   0.708238 0.000045 0.315831 -0.232096
C12   C     C_3   0.708891 0.022294 0.372241 -0.487697
C13   C     C_R   0.172365 0.271713 0.751526 0.140548
C14   C     C_3   0.736823 0.890789 0.855969 0.061451
C15   C     C_3   0.665958 0.914813 0.883021 -0.236026
C16   C     C_3   0.676171 0.923576 0.940558 -0.476751
C17   C     C_3   0.750148 0.386331 0.637361 0.060816
C18   C     C_3   0.815908 0.412909 0.605116 -0.234183
C19   C     C_3   0.799150 0.417012 0.547856 -0.476277
C20   C     C_3   0.822144 0.388637 0.331526 0.048185
C21   C     C_3   0.805778 0.322892 0.367275 -0.301620
C22   C     C_3   0.843088 0.332788 0.419271 -0.469172
C23   C     C_3   0.170896 0.410581 0.691327 0.061261
C24   C     C_R   0.209582 0.234821 0.299948 0.210876
C25   C     C_3   0.224459 0.423899 0.646922 -0.258193
C26   C     C_3   0.183689 0.443832 0.597620 -0.506724
C27   C     C_3   0.253233 0.376524 0.365876 0.064792
C28   C     C_3   0.187684 0.400817 0.398975 -0.228622
C29   C     C_3   0.200315 0.390226 0.456379 -0.471230
C30   C     C_3   0.691109 0.065283 0.775194 0.032028
C31   C     C_3   0.607034 0.066821 0.776588 -0.310360
C32   C     C_3   0.574772 0.999374 0.751371 -0.434246
C33   C     C_3   0.694879 0.101977 0.171076 0.021723
C34   C     C_3   0.683863 0.021269 0.160167 -0.222328
C35   C     C_R   0.291263 0.736536 0.200060 0.248257
C36   C     C_3   0.663378 0.008466 0.104136 -0.490441
C37   C     C_3   0.315417 0.095544 0.816243 0.043072
C38   C     C_3   0.392777 0.063557 0.814245 -0.267830
C39   C     C_3   0.423227 0.049997 0.868091 -0.488780
C40   C     C_3   0.310387 0.074861 0.205610 0.026259
C41   C     C_3   0.390760 0.079081 0.188068 -0.300960
C42   C     C_3   0.435029 0.014522 0.208110 -0.432707
C43   C     C_3   0.196932 0.567966 0.292362 0.034242
C44   C     C_3   0.114577 0.564594 0.304116 -0.308142
C45   C     C_3   0.080733 0.494794 0.283362 -0.435717
C46   C     C_R   0.327940 0.772383 0.756504 0.194762
C47   C     C_3   0.237712 0.635732 0.642485 0.038887
C48   C     C_3   0.167138 0.652657 0.612224 -0.285547
C49   C     C_3   0.163603 0.731804 0.594266 -0.439094
C50   C     C_3   0.810102 0.601151 0.321939 0.045951
C51   C     C_3   0.889700 0.575059 0.324197 -0.270477
C52   C     C_3   0.914783 0.563172 0.379592 -0.493437
C53   C     C_3   0.813194 0.570101 0.714549 0.025105
C54   C     C_3   0.894294 0.571575 0.698657 -0.306698
C55   C     C_3   0.934910 0.504442 0.718249 -0.427499
C56   C     C_3   0.160277 0.063995 0.057213 0.034407
C57   C     C_R   0.672669 0.774036 0.249653 0.156445
C58   C     C_3   0.203195 0.090949 0.009883 -0.282687
C59   C     C_3   0.243146 0.162029 0.020987 -0.451581
C60   C     C_3   0.115253 0.882336 0.936723 0.027815
C61   C     C_3   0.125270 0.832099 0.983541 -0.270751
C62   C     C_3   0.120069 0.752382 0.968412 -0.475401
C63   C     C_3   0.856013 0.911626 0.067498 0.042324
C64   C     C_3   0.800653 0.874338 0.032656 -0.279425
C65   C     C_3   0.786714 0.795999 0.049535 -0.472638
C66   C     C_3   0.847525 0.081796 0.939032 0.039591
C67   C     C_3   0.799784 0.113201 0.982114 -0.275549
C68   C     C_R   0.705955 0.738648 0.798773 0.239013
C69   C     C_3   0.770008 0.187917 0.967469 -0.461363
C70   C     C_3   0.646972 0.597585 0.549365 0.027424
C71   C     C_3   0.726409 0.609454 0.566146 -0.268642
C72   C     C_3   0.743597 0.689879 0.573418 -0.395648
C73   C     C_3   0.638401 0.405519 0.442119 0.027702
C74   C     C_3   0.622908 0.356725 0.489587 -0.294995
C75   C     C_3   0.645523 0.278277 0.479937 -0.476853
C76   C     C_3   0.389115 0.379692 0.567071 0.028410
C77   C     C_3   0.339437 0.327124 0.538174 -0.274161
C78   C     C_3   0.351920 0.248844 0.555562 -0.478296
C79   C     C_R   0.793830 0.186414 0.739696 -0.008492
C80   C     C_3   0.337914 0.557909 0.438754 0.042643
C81   C     C_3   0.283178 0.582384 0.479952 -0.282528
C82   C     C_3   0.246416 0.653544 0.464228 -0.477897
C83   C     C_R   0.806618 0.198724 0.244524 -0.008241
C84   C     C_R   0.194140 0.198156 0.753472 -0.019849
C85   C     C_R   0.856844 0.137165 0.747127 0.583561
C86   C     C_R   0.205768 0.186728 0.257782 -0.030629
C87   C     C_R   0.293861 0.686436 0.241548 -0.003251
C88   C     C_R   0.309066 0.701155 0.741900 -0.022578
C89   C     C_R   0.693523 0.699613 0.253246 -0.026272
C90   C     C_R   0.705738 0.686718 0.758818 -0.007562
C91   C     C_R   0.732966 0.182119 0.773169 0.200272
C92   C     C_R   0.733173 0.181287 0.232624 0.182547
C93   C     C_R   0.268590 0.179644 0.759486 0.199248
C94   C     C_R   0.262337 0.187359 0.220687 0.203872
C95   C     C_R   0.235745 0.684810 0.277642 0.198998
C96   C     C_R   0.142763 0.137454 0.252008 0.548719
C97   C     C_R   0.238345 0.687240 0.722071 0.215427
C98   C     C_R   0.767782 0.680698 0.260798 0.204880
C99   C     C_R   0.765514 0.684128 0.724405 0.195524
C100  C     C_R   0.185386 0.740839 0.278047 -0.166605
C101  C     C_R   0.183734 0.738736 0.727501 -0.183048
C102  C     C_R   0.821604 0.733815 0.257265 -0.170195
C103  C     C_R   0.815583 0.740521 0.723435 -0.158678
C104  C     C_R   0.683376 0.238775 0.774746 -0.159946
C105  C     C_R   0.680055 0.235243 0.234348 -0.182001
C106  C     C_R   0.321515 0.233917 0.757980 -0.183784
C107  C     C_R   0.139641 0.140469 0.750799 0.579410
C108  C     C_R   0.312118 0.243935 0.219961 -0.157000
C109  C     C_R   0.192964 0.799932 0.244411 -0.037132
C110  C     C_R   0.199162 0.805977 0.749187 -0.046760
C111  C     C_R   0.802095 0.806264 0.252113 -0.039184
C112  C     C_R   0.806141 0.800774 0.755161 -0.029428
C113  C     C_R   0.693075 0.300094 0.743519 -0.039043
C114  C     C_R   0.698442 0.305386 0.249583 -0.030708
C115  C     C_R   0.301346 0.306036 0.750356 -0.029358
C116  C     C_R   0.306357 0.300673 0.255126 -0.035788
C117  C     C_R   0.066122 0.994679 0.025870 0.211077
C118  C     C_R   0.361688 0.641647 0.747570 0.568604
C119  C     C_R   0.063815 0.982684 0.973321 0.220104
C120  C     C_R   0.931879 0.994093 0.026996 0.216773
C121  C     C_R   0.931469 0.002852 0.973858 0.215037
C122  C     C_R   0.565339 0.510661 0.526201 0.196107
C123  C     C_R   0.566008 0.497596 0.473720 0.222218
C124  C     C_R   0.434747 0.481880 0.527154 0.219624
C125  C     C_R   0.432278 0.492404 0.474205 0.215398
C126  C     C_R   0.998163 0.995886 0.946351 -0.065766
C127  C     C_R   0.999502 0.997116 0.053657 -0.066550
C128  C     C_R   0.499153 0.496897 0.446488 -0.064479
C129  C     C_R   0.357105 0.637479 0.247759 0.585020
C130  C     C_R   0.499969 0.498654 0.553848 -0.063829
C131  C     C_R   0.140393 0.859648 0.249348 0.519527
C132  C     C_R   0.140536 0.860140 0.750309 0.521017
C133  C     C_R   0.859802 0.860317 0.250153 0.520792
C134  C     C_R   0.859332 0.860079 0.750458 0.545891
C135  C     C_R   0.640452 0.359683 0.749237 0.529770
C136  C     C_R   0.640510 0.360181 0.250244 0.528463
C137  C     C_R   0.359193 0.360571 0.750161 0.530819
C138  C     C_R   0.359513 0.359961 0.250624 0.528265
C139  C     C_R   0.000019 0.999434 0.109764 0.528625
C140  C     C_R   0.642955 0.637201 0.752421 0.559584
C141  C     C_R   0.999539 0.999235 0.890228 0.518384
C142  C     C_R   0.500096 0.499825 0.609837 0.522397
C143  C     C_R   0.499748 0.498912 0.390282 0.516358
C144  C     C_R   0.997806 0.999244 0.390232 0.538464
C145  C     C_R   0.997752 0.000399 0.610142 0.548670
C146  C     C_R   0.502902 0.499359 0.889833 0.535604
C147  C     C_R   0.496549 0.499719 0.110226 0.537042
C148  C     C_R   0.013625 0.058354 0.473352 -0.030629
C149  C     C_R   0.014075 0.059210 0.526041 -0.035126
C150  C     C_R   0.500254 0.559989 0.973817 -0.047958
C151  C     C_R   0.639203 0.641174 0.251032 0.567358
C152  C     C_R   0.497796 0.560277 0.025509 -0.050102
C153  C     C_R   0.988717 0.997831 0.446571 -0.028913
C154  C     C_R   0.985703 0.001959 0.554747 -0.022289
C155  C     C_R   0.504989 0.496498 0.945679 -0.021008
C156  C     C_R   0.492513 0.497137 0.054474 -0.017188
C157  C     C_R   0.950291 0.941725 0.474850 0.204172
C158  C     C_R   0.942049 0.949706 0.529286 0.188482
C159  C     C_R   0.506827 0.429602 0.974003 0.214577
C160  C     C_R   0.488097 0.430168 0.027033 0.206798
C161  C     C_3   0.085938 0.097462 0.529108 -0.271607
C162  C     C_R   0.793730 0.239078 0.699604 0.241147
C163  C     C_3   0.086208 0.096589 0.470762 -0.199661
C164  C     C_3   0.499073 0.641017 0.028715 -0.233859
C165  C     C_3   0.501452 0.640754 0.969572 -0.230501
C166  C     C_R   0.247614 0.799475 0.205254 0.242940
C167  C     C_R   0.271061 0.822305 0.765926 0.263705
C168  C     C_R   0.727963 0.827301 0.252338 0.231748
C169  C     C_R   0.749186 0.801817 0.792545 0.236906
C170  C     C_R   0.749146 0.301395 0.705166 0.241199
C171  C     C_R   0.771577 0.322692 0.262668 0.263997
C172  C     C_R   0.226796 0.325587 0.744341 0.242417
H1    H     H_    0.080397 0.152895 0.545306 0.168935
H2    H     H_    0.129066 0.726106 0.713806 0.164135
H3    H     H_    0.315869 0.144669 0.841309 0.120753
H4    H     H_    0.391302 0.011597 0.792901 0.225364
H5    H     H_    0.430013 0.101552 0.793385 0.160881
H6    H     H_    0.430581 0.102307 0.888466 0.180086
H7    H     H_    0.477336 0.022571 0.865229 0.153052
H8    H     H_    0.385521 0.014738 0.890804 0.132511
H9    H     H_    0.286016 0.023700 0.191239 0.185099
H10   H     H_    0.307403 0.071092 0.248501 0.119705
H11   H     H_    0.393271 0.080218 0.145367 0.177175
H12   H     H_    0.416239 0.129715 0.202598 0.166195
H13   H     H_    0.878923 0.718419 0.259415 0.148287
H14   H     H_    0.435637 0.014290 0.250817 0.171617
H15   H     H_    0.492513 0.018608 0.193938 0.168193
H16   H     H_    0.411140 0.962642 0.194485 0.201135
H17   H     H_    0.223627 0.519834 0.310075 0.187438
H18   H     H_    0.206383 0.563358 0.250019 0.142530
H19   H     H_    0.105807 0.566849 0.346386 0.164045
H20   H     H_    0.086601 0.611899 0.286150 0.165364
H21   H     H_    0.087673 0.492219 0.240967 0.182278
H22   H     H_    0.021276 0.493198 0.292440 0.166904
H23   H     H_    0.106909 0.446547 0.301261 0.205346
H24   H     H_    0.860067 0.738346 0.695707 0.181569
H25   H     H_    0.260974 0.584660 0.627218 0.150025
H26   H     H_    0.281597 0.676984 0.634758 0.134658
H27   H     H_    0.165097 0.617745 0.577571 0.119156
H28   H     H_    0.117753 0.639665 0.635827 0.184729
H29   H     H_    0.162334 0.769323 0.627345 0.175932
H30   H     H_    0.113030 0.740395 0.571278 0.171857
H31   H     H_    0.211950 0.745278 0.569841 0.143236
H32   H     H_    0.773901 0.559627 0.340001 0.174926
H33   H     H_    0.804368 0.651109 0.345888 0.116675
H34   H     H_    0.894669 0.523547 0.302613 0.200298
H35   H     H_    0.638233 0.235255 0.801930 0.185306
H36   H     H_    0.926307 0.615837 0.305616 0.165925
H37   H     H_    0.913378 0.615221 0.400911 0.171422
H38   H     H_    0.971933 0.542270 0.379821 0.149032
H39   H     H_    0.878877 0.523061 0.399517 0.135639
H40   H     H_    0.788328 0.518514 0.701298 0.195056
H41   H     H_    0.808263 0.569487 0.757413 0.141197
H42   H     H_    0.898640 0.574074 0.656043 0.167661
H43   H     H_    0.921059 0.620715 0.714592 0.162669
H44   H     H_    0.932418 0.501645 0.760896 0.187344
H45   H     H_    0.993421 0.507311 0.706175 0.159447
H46   H     H_    0.623478 0.221323 0.226056 0.154085
H47   H     H_    0.910297 0.454340 0.702125 0.203369
H48   H     H_    0.198189 0.062443 0.090608 0.182899
H49   H     H_    0.116019 0.103397 0.067264 0.132979
H50   H     H_    0.244187 0.049612 0.998159 0.183656
H51   H     H_    0.164803 0.099972 0.977368 0.181041
H52   H     H_    0.203219 0.204668 0.032237 0.167343
H53   H     H_    0.273002 0.180541 0.985959 0.169764
H54   H     H_    0.283562 0.154160 0.052450 0.193391
H55   H     H_    0.156346 0.868502 0.907100 0.158825
H56   H     H_    0.060848 0.871737 0.918758 0.111185
H57   H     H_    0.378880 0.219339 0.761965 0.147191
H58   H     H_    0.179466 0.842086 0.001260 0.184516
H59   H     H_    0.082089 0.843305 0.012693 0.162064
H60   H     H_    0.065159 0.740586 0.951923 0.150575
H61   H     H_    0.128068 0.717595 0.002972 0.178360
H62   H     H_    0.163110 0.738873 0.939709 0.150615
H63   H     H_    0.833534 0.911037 0.107286 0.176762
H64   H     H_    0.908046 0.879483 0.068524 0.100100
H65   H     H_    0.748179 0.904710 0.034446 0.165969
H66   H     H_    0.821440 0.874852 0.992434 0.197063
H67   H     H_    0.838420 0.764158 0.047711 0.157151
H68   H     H_    0.353649 0.244644 0.190020 0.194484
H69   H     H_    0.745862 0.770738 0.023546 0.184246
H70   H     H_    0.764722 0.794304 0.089436 0.159529
H71   H     H_    0.815758 0.083637 0.902624 0.192475
H72   H     H_    0.897093 0.116582 0.932621 0.122722
H73   H     H_    0.752846 0.076175 0.990133 0.176735
H74   H     H_    0.832877 0.118333 0.017701 0.196598
H75   H     H_    0.815974 0.226149 0.959515 0.173689
H76   H     H_    0.736602 0.209557 0.999700 0.171804
H77   H     H_    0.734630 0.184083 0.932859 0.181040
H78   H     H_    0.609422 0.626450 0.576237 0.143589
H79   H     H_    0.865582 0.758308 0.459779 0.344537
H80   H     H_    0.640682 0.620926 0.509895 0.137790
H81   H     H_    0.736174 0.579788 0.602763 0.221396
H82   H     H_    0.764131 0.587124 0.536540 0.154486
H83   H     H_    0.735209 0.720213 0.536848 0.177321
H84   H     H_    0.801754 0.696281 0.585337 0.207600
H85   H     H_    0.707776 0.713152 0.603776 0.181521
H86   H     H_    0.695389 0.395720 0.429361 0.152338
H87   H     H_    0.602282 0.388546 0.410031 0.139765
H88   H     H_    0.652675 0.377242 0.523590 0.192360
H89   H     H_    0.563178 0.357099 0.498560 0.133134
H90   H     H_    0.784292 0.944606 0.513556 0.331325
H91   H     H_    0.616283 0.256539 0.445916 0.141734
H92   H     H_    0.631316 0.244393 0.514031 0.169926
H93   H     H_    0.705609 0.274815 0.473380 0.160994
H94   H     H_    0.377796 0.374537 0.608886 0.156574
H95   H     H_    0.447430 0.362347 0.561430 0.092342
H96   H     H_    0.281163 0.341303 0.545409 0.165344
H97   H     H_    0.350809 0.331612 0.496257 0.186159
H98   H     H_    0.409645 0.232475 0.548006 0.150748
H99   H     H_    0.314815 0.212237 0.533948 0.172703
H100  H     H_    0.339840 0.242888 0.597290 0.146254
H101  H     H_    0.595503 0.250178 0.976650 0.352915
H102  H     H_    0.308583 0.554965 0.401415 0.187053
H103  H     H_    0.381885 0.599788 0.433657 0.123414
H104  H     H_    0.239987 0.540469 0.485393 0.167348
H105  H     H_    0.312040 0.589932 0.517116 0.177580
H106  H     H_    0.287860 0.697704 0.461222 0.159257
H107  H     H_    0.204728 0.668702 0.493355 0.150562
H108  H     H_    0.218221 0.647494 0.426675 0.192165
H109  H     H_    0.081374 0.151713 0.453533 0.233205
H110  H     H_    0.369005 0.328623 0.992318 0.336231
H111  H     H_    0.213841 0.930323 0.139016 0.178913
H112  H     H_    0.220012 0.840034 0.117825 0.175170
H113  H     H_    0.332011 0.965612 0.115346 0.123330
H114  H     H_    0.367882 0.875438 0.116078 0.249044
H115  H     H_    0.355480 0.927262 0.027581 0.139101
H116  H     H_    0.257671 0.933551 0.036650 0.193131
H117  H     H_    0.302103 0.845898 0.036610 0.198205
H118  H     H_    0.287871 0.929381 0.861314 0.140940
H119  H     H_    0.372417 0.893358 0.839580 0.196353
H120  H     H_    0.129716 0.063304 0.546547 0.133732
H121  H     H_    0.236800 0.798096 0.866952 0.136124
H122  H     H_    0.328723 0.767016 0.856186 0.188465
H123  H     H_    0.300416 0.772267 0.949014 0.163741
H124  H     H_    0.283768 0.868698 0.943441 0.153603
H125  H     H_    0.374545 0.832862 0.931490 0.170827
H126  H     H_    0.763137 0.898663 0.329057 0.154803
H127  H     H_    0.663935 0.892739 0.330262 0.159647
H128  H     H_    0.756653 0.024656 0.296293 0.207395
H129  H     H_    0.657316 0.020777 0.297445 0.216656
H130  H     H_    0.660672 0.998884 0.392763 0.159654
H131  H     H_    0.130466 0.062040 0.454478 0.172898
H132  H     H_    0.706384 0.082400 0.374884 0.148101
H133  H     H_    0.760125 0.003334 0.391118 0.175809
H134  H     H_    0.773108 0.939166 0.853595 0.175175
H135  H     H_    0.768452 0.850369 0.878602 0.178643
H136  H     H_    0.647551 0.967450 0.866597 0.137740
H137  H     H_    0.621450 0.874981 0.876378 0.249197
H138  H     H_    0.686411 0.869707 0.958405 0.190534
H139  H     H_    0.625530 0.946660 0.957814 0.143961
H140  H     H_    0.722727 0.960739 0.948321 0.179129
H141  H     H_    0.711663 0.432791 0.640083 0.181027
H142  H     H_    0.447201 0.663565 0.044471 0.189208
H143  H     H_    0.718666 0.342462 0.618213 0.161774
H144  H     H_    0.832461 0.467703 0.618321 0.125942
H145  H     H_    0.863680 0.376608 0.610841 0.251251
H146  H     H_    0.848156 0.437766 0.526872 0.138337
H147  H     H_    0.752929 0.454523 0.540587 0.199667
H148  H     H_    0.785453 0.362425 0.532879 0.189633
H149  H     H_    0.803466 0.437541 0.352332 0.135133
H150  H     H_    0.882222 0.395354 0.326598 0.199212
H151  H     H_    0.745605 0.316427 0.372493 0.136327
H152  H     H_    0.827537 0.271789 0.351026 0.179807
H153  H     H_    0.450872 0.662681 0.951386 0.163079
H154  H     H_    0.830530 0.285770 0.444729 0.165433
H155  H     H_    0.823826 0.383279 0.437956 0.133047
H156  H     H_    0.903618 0.336026 0.414119 0.186293
H157  H     H_    0.136348 0.459741 0.696279 0.182888
H158  H     H_    0.133235 0.365896 0.680395 0.167414
H159  H     H_    0.262510 0.468531 0.656996 0.231677
H160  H     H_    0.256848 0.373823 0.640309 0.149285
H161  H     H_    0.151193 0.396691 0.583976 0.153523
H162  H     H_    0.223739 0.459648 0.567305 0.180432
H163  H     H_    0.146131 0.490252 0.604298 0.143093
H164  H     H_    0.550319 0.661650 0.046610 0.170157
H165  H     H_    0.292436 0.422635 0.364315 0.178555
H166  H     H_    0.284675 0.331238 0.383454 0.173100
H167  H     H_    0.176648 0.459224 0.391332 0.120509
H168  H     H_    0.137509 0.370410 0.388188 0.241115
H169  H     H_    0.202173 0.331728 0.466461 0.202774
H170  H     H_    0.154544 0.415417 0.478184 0.130677
H171  H     H_    0.252325 0.416045 0.468068 0.200249
H172  H     H_    0.869736 0.124265 0.597545 0.373089
H173  H     H_    0.014716 0.261710 0.203028 0.363203
H174  H     H_    0.080936 0.244281 0.842001 0.327775
H175  H     H_    0.553970 0.661836 0.953575 0.193859
H176  H     H_    0.211685 0.098073 0.360098 0.316732
H177  H     H_    0.350675 0.612131 0.098944 0.357628
H178  H     H_    0.520377 0.770256 0.715637 0.364357
H179  H     H_    0.548197 0.763004 0.319871 0.312498
H180  H     H_    0.655714 0.616108 0.903651 0.357949
H181  H     H_    0.710350 0.013683 0.792341 0.194397
H182  H     H_    0.710835 0.064653 0.734469 0.143217
H183  H     H_    0.587753 0.069652 0.817090 0.171737
H184  H     H_    0.586994 0.115785 0.755808 0.157627
H185  H     H_    0.594907 0.994573 0.711173 0.173893
H186  H     H_    0.142311 0.739507 0.306904 0.176649
H187  H     H_    0.514061 0.003526 0.750651 0.182853
H188  H     H_    0.590151 0.949794 0.773347 0.206701
H189  H     H_    0.740201 0.122748 0.145954 0.161896
H190  H     H_    0.643127 0.131294 0.161736 0.136795
H191  H     H_    0.735394 0.991416 0.168937 0.227479
H192  H     H_    0.639458 0.999501 0.185378 0.217278
H193  H     H_    0.611766 0.037536 0.094476 0.153703
H194  H     H_    0.654779 0.949497 0.097871 0.166203
H195  H     H_    0.708148 0.027704 0.078299 0.167215
H196  H     H_    0.277972 0.055713 0.835023 0.174057
O1    O     O_3   1.000000 0.000010 0.249960 -0.477496
O2    O     O_R   0.414520 0.646190 0.219700 -0.416642
O3    O     O_3   0.269492 0.133268 0.184363 -0.553308
O4    O     O_3   0.228872 0.630637 0.314533 -0.569568
O5    O     O_3   0.222370 0.624356 0.695571 -0.536375
O6    O     O_3   0.788386 0.609481 0.269841 -0.518907
O7    O     O_3   0.774777 0.627695 0.690276 -0.572538
O8    O     O_3   0.133592 0.992405 0.050166 -0.557777
O9    O     O_3   0.126297 0.956411 0.949402 -0.536324
O10   O     O_3   0.865206 0.985302 0.052232 -0.539050
O11   O     O_3   0.864421 0.007988 0.949101 -0.553714
O12   O     O_3   0.631410 0.522449 0.550768 -0.546751
O13   O     O_R   0.585480 0.646190 0.780300 -0.440075
O14   O     O_3   0.632875 0.481516 0.451143 -0.528583
O15   O     O_3   0.373834 0.452435 0.551716 -0.543136
O16   O     O_3   0.365112 0.487395 0.449790 -0.561866
O17   O     O_R   0.585480 0.646190 0.219700 -0.469281
O18   O     O_R   0.085460 0.853840 0.280340 -0.548386
O19   O     O_R   0.085460 0.853840 0.719660 -0.570284
O20   O     O_R   0.914540 0.853840 0.280340 -0.521704
O21   O     O_R   0.914540 0.853840 0.719660 -0.523866
O22   O     O_R   0.585460 0.353840 0.780340 -0.526192
O23   O     O_R   0.585460 0.353840 0.219660 -0.545521
O24   O     O_R   0.414540 0.353840 0.780340 -0.540880
O25   O     O_3   1.000000 0.000010 0.750040 -0.477549
O26   O     O_R   0.414540 0.353840 0.219660 -0.527189
O27   O     O_R   0.853820 0.914550 0.219610 -0.541732
O28   O     O_R   0.853820 0.914550 0.780390 -0.545167
O29   O     O_R   0.146180 0.914550 0.219610 -0.539454
O30   O     O_R   0.146180 0.914550 0.780390 -0.498754
O31   O     O_R   0.353820 0.414550 0.719610 -0.538479
O32   O     O_R   0.353820 0.414550 0.280390 -0.544018
O33   O     O_R   0.646180 0.414550 0.719610 -0.544229
O34   O     O_R   0.646180 0.414550 0.280390 -0.504177
O35   O     O_R   0.146170 0.085440 0.219600 -0.530875
O36   O     O_3   0.500000 0.500010 0.749960 -0.478116
O37   O     O_R   0.146170 0.085440 0.780400 -0.516689
O38   O     O_R   0.853830 0.085440 0.219600 -0.517439
O39   O     O_R   0.853830 0.085440 0.780400 -0.533113
O40   O     O_R   0.646170 0.585440 0.719600 -0.525054
O41   O     O_R   0.646170 0.585440 0.280400 -0.516775
O42   O     O_R   0.353830 0.585440 0.719600 -0.513813
O43   O     O_R   0.353830 0.585440 0.280400 -0.542361
O44   O     O_R   0.939270 0.999980 0.134160 -0.523053
O45   O     O_R   0.939270 0.999980 0.865840 -0.531437
O46   O     O_R   0.060730 0.999980 0.134160 -0.530015
O47   O     O_3   0.500000 0.500010 0.250040 -0.482866
O48   O     O_R   0.060730 0.999980 0.865840 -0.519790
O49   O     O_R   0.439270 0.499980 0.634160 -0.536699
O50   O     O_R   0.439270 0.499980 0.365840 -0.540452
O51   O     O_R   0.560730 0.499980 0.634160 -0.522756
O52   O     O_R   0.560730 0.499980 0.365840 -0.525031
O53   O     O_R   0.000000 0.060760 0.365760 -0.503664
O54   O     O_R   0.000000 0.060760 0.634240 -0.525242
O55   O     O_R   0.500000 0.560760 0.865760 -0.521468
O56   O     O_R   0.500000 0.560760 0.134240 -0.526902
O57   O     O_R   0.000000 0.939310 0.365770 -0.459387
O58   O     O_R   0.914520 0.146190 0.280300 -0.492980
O59   O     O_R   1.000000 0.939310 0.634230 -0.489858
O60   O     O_R   0.500000 0.439310 0.865770 -0.464918
O61   O     O_R   0.500000 0.439310 0.134230 -0.463475
O62   O     O_2   0.868208 0.879105 0.401737 -0.326924
O63   O     O_2   0.987412 0.823506 0.420697 -0.271097
O64   O     O_3   0.881491 0.797997 0.482748 -0.436983
O65   O     O_2   0.895496 0.833352 0.583454 -0.215660
O66   O     O_2   0.847322 0.951007 0.609884 -0.289848
O67   O     O_3   0.795309 0.895369 0.526990 -0.459652
O68   O     O_2   0.490460 0.308806 0.916935 -0.253325
O69   O     O_R   0.914520 0.146190 0.719700 -0.422743
O70   O     O_2   0.610350 0.369515 0.913368 -0.279975
O71   O     O_3   0.578753 0.294515 0.994544 -0.460817
O72   O     O_2   0.498267 0.308249 0.084880 -0.191841
O73   O     O_2   0.382542 0.375136 0.089433 -0.297560
O74   O     O_3   0.408038 0.298870 0.008450 -0.462877
O75   O     O_3   0.275275 0.865513 0.187442 -0.562532
O76   O     O_3   0.284876 0.888852 0.788584 -0.507807
O77   O     O_3   0.710291 0.899970 0.257157 -0.525492
O78   O     O_3   0.718855 0.868454 0.805630 -0.575017
O79   O     O_3   0.775552 0.367971 0.687241 -0.559622
O80   O     O_R   0.085480 0.146190 0.280300 -0.431335
O81   O     O_3   0.787024 0.390745 0.282514 -0.501988
O82   O     O_3   0.208563 0.398399 0.738349 -0.502768
O83   O     O_3   0.227528 0.362653 0.315595 -0.569222
O84   O     O_2   0.797417 0.248585 0.594662 -0.359391
O85   O     O_2   0.914741 0.254023 0.640375 -0.240494
O86   O     O_3   0.847247 0.130103 0.632009 -0.505662
O87   O     O_2   0.923563 0.378980 0.229982 -0.264749
O88   O     O_2   0.960596 0.289899 0.295427 -0.276846
O89   O     O_3   0.961679 0.250625 0.199736 -0.529147
O90   O     O_2   0.076596 0.372891 0.787214 -0.255040
O91   O     O_R   0.085480 0.146190 0.719700 -0.489266
O92   O     O_2   0.032541 0.290927 0.720434 -0.226397
O93   O     O_3   0.046494 0.239997 0.812772 -0.517942
O94   O     O_2   0.218073 0.228663 0.404897 -0.369190
O95   O     O_2   0.096278 0.242646 0.366542 -0.227409
O96   O     O_3   0.161055 0.117314 0.362920 -0.535157
O97   O     O_2   0.284699 0.736956 0.095333 -0.369834
O98   O     O_2   0.406441 0.746474 0.134807 -0.239812
O99   O     O_3   0.339009 0.621898 0.135459 -0.532175
O100  O     O_2   0.424501 0.881991 0.742167 -0.290863
O101  O     O_2   0.455707 0.789748 0.806820 -0.269821
O102  O     O_R   0.414520 0.646190 0.780300 -0.486196
O103  O     O_3   0.468374 0.756338 0.710346 -0.536517
O104  O     O_2   0.567733 0.880690 0.254081 -0.280073
O105  O     O_2   0.553231 0.785736 0.190316 -0.198228
O106  O     O_3   0.526463 0.753473 0.285709 -0.512108
O107  O     O_2   0.708489 0.745426 0.903705 -0.367914
O108  O     O_2   0.588113 0.745421 0.861920 -0.242440
O109  O     O_3   0.662242 0.625180 0.866348 -0.525635
O110  O     O_3   0.720750 0.122640 0.804778 -0.562141
O111  O     O_3   0.712325 0.110239 0.223590 -0.573365
O112  O     O_3   0.289904 0.107919 0.765416 -0.529290
S1    S     S_3+6 0.921249 0.859776 0.443799 0.043577
S2    S     S_3+6 0.421060 0.802438 0.755189 0.015884
S3    S     S_3+6 0.578719 0.801181 0.244037 0.042042
S4    S     S_3+6 0.665007 0.716191 0.859529 -0.002286
S5    S     S_3+6 0.869739 0.906158 0.564361 0.071644
S6    S     S_3+6 0.546837 0.349247 0.947729 0.067396
S7    S     S_3+6 0.443896 0.351995 0.054329 0.077682
S8    S     S_3+6 0.839477 0.220415 0.640021 0.014831
S9    S     S_3+6 0.920345 0.300265 0.245536 0.022462
S10   S     S_3+6 0.080111 0.296509 0.767344 0.026516
S11   S     S_3+6 0.170506 0.208185 0.360379 -0.011250
S12   S     S_3+6 0.331474 0.712835 0.139560 0.000859
Zn1   Zn    Zn3+2 0.000000 0.913260 0.293350 0.991099
Zn2   Zn    Zn3+2 0.413230 0.500000 0.293420 0.925486
Zn3   Zn    Zn3+2 0.586770 0.500000 0.706580 0.936363
Zn4   Zn    Zn3+2 0.586770 0.500000 0.293420 0.961559
Zn5   Zn    Zn3+2 0.000000 0.086780 0.293330 1.053248
Zn6   Zn    Zn3+2 1.000000 0.086780 0.706670 1.074798
Zn7   Zn    Zn3+2 0.500000 0.586780 0.793330 1.052550
Zn8   Zn    Zn3+2 0.500000 0.586780 0.206670 1.074578
Zn9   Zn    Zn3+2 1.000000 0.913260 0.706650 0.980364
Zn10  Zn    Zn3+2 0.500000 0.413260 0.793350 1.002939
Zn11  Zn    Zn3+2 0.500000 0.413260 0.206650 1.005533
Zn12  Zn    Zn3+2 0.913230 1.000000 0.206580 0.939599
Zn13  Zn    Zn3+2 0.913230 0.000000 0.793420 0.948707
Zn14  Zn    Zn3+2 0.086770 1.000000 0.206580 0.929731
Zn15  Zn    Zn3+2 0.086770 0.000000 0.793420 0.965884
Zn16  Zn    Zn3+2 0.413230 0.500000 0.706580 0.936541

loop_
_geom_bond_atom_site_label_1
_geom_bond_atom_site_label_2
_ccdc_geom_bond_type
C99   C103  A    
O18   Zn1   S    
C107  O91   A    
C157  C158  A    
C62   H62   S    
H173  O89   S    
C79   C85   S    
C19   H148  S    
C85   O39   A    
C39   H8    S    
C51   H34   S    
O39   Zn13  S    
C91   O110  S    
O64   S1    S    
O109  S4    S    
H178  O103  S    
C60   C61   S    
C81   H105  S    
C33   O111  S    
O93   S10   S    
C154  C158  A    
C132  O19   A    
C117  C119  A    
C21   H152  S    
O65   S5    D    
C5    C6    S    
C67   H74   S    
C11   H129  S    
C27   O83   S    
C8    H121  S    
C23   H158  S    
C122  O12   S    
C20   O81   S    
C4    H111  S    
O99   S12   S    
C5    H114  S    
C73   C74   S    
C62   H60   S    
O26   Zn11  S    
C92   O111  S    
C152  C156  A    
C68   C90   A    
C147  O61   A    
C47   H26   S    
C118  O42   A    
C30   H182  S    
C64   H66   S    
C88   C97   A    
C69   H77   S    
C2    C171  A    
C96   O80   A    
O1    Zn1   S    
C100  C109  A    
C21   C22   S    
C52   H38   S    
O29   Zn14  S    
C2    C83   A    
O27   Zn12  S    
C161  C163  S    
C93   O112  S    
O73   S7    D    
C75   H91   S    
C29   H171  S    
C147  O56   A    
C48   H27   S    
C51   C52   S    
C14   O78   S    
C161  H120  S    
O66   S5    D    
C118  O102  A    
O44   Zn12  S    
C66   O11   S    
C115  C172  A    
C101  C110  A    
C98   C102  A    
C22   H154  S    
C162  S8    S    
O1    Zn14  S    
C17   H141  S    
O102  Zn7   S    
C43   C44   S    
C71   H82   S    
C37   C38   S    
C37   H3    S    
C68   C169  A    
H101  O71   S    
C38   H4    S    
C112  C169  A    
O60   Zn10  S    
C12   H132  S    
O36   Zn10  S    
C61   H58   S    
C124  C130  A    
C78   H99   S    
C148  C149  A    
O96   S11   S    
O47   Zn11  S    
O105  S3    D    
C15   H137  S    
O59   Zn9   S    
O30   Zn15  S    
O1    Zn5   S    
O54   Zn6   S    
C40   O3    S    
C103  H24   S    
C72   H83   S    
O1    Zn12  S    
C56   H48   S    
C39   H6    S    
C40   H9    S    
C75   H93   S    
C45   H22   S    
C54   H42   S    
C164  C165  S    
C82   H108  S    
O46   Zn14  S    
C139  O46   A    
C112  C134  S    
C4    C5    S    
C135  O33   A    
C125  O16   S    
C90   C140  S    
C58   H51   S    
C73   H87   S    
C113  C170  A    
C74   H88   S    
C131  O18   A    
C126  C141  S    
C106  C115  A    
C6    H115  S    
O97   S12   D    
C44   H20   S    
O33   Zn3   S    
C120  O10   S    
C134  O21   A    
C84   C93   A    
C132  O30   A    
C26   H161  S    
C59   H52   S    
C119  C126  A    
C20   H149  S    
C27   H165  S    
C20   C21   S    
C151  O17   A    
C113  C135  S    
C129  O43   A    
C114  C136  S    
C168  O77   S    
C42   H15   S    
O37   Zn15  S    
C76   H94   S    
H90   O67   S    
O36   Zn3   S    
C141  O48   A    
C14   H135  S    
C103  C112  A    
C63   O10   S    
C100  H186  S    
C120  C127  A    
C7    C8    S    
C57   C168  A    
C15   H136  S    
C13   C84   A    
O68   S6    D    
C17   H143  S    
C18   H144  S    
C3    C116  A    
C56   H49   S    
O50   Zn2   S    
C7    H118  S    
O86   S8    S    
C10   H126  S    
C66   H71   S    
C143  O52   A    
C84   C107  S    
C135  O22   A    
C104  H35   S    
C59   H54   S    
O92   S10   D    
O19   Zn9   S    
C63   H64   S    
C35   C87   A    
C69   H75   S    
C115  C137  S    
C87   C95   A    
O52   Zn4   S    
C53   O7    S    
C41   H12   S    
C79   C91   A    
C34   H192  S    
O61   Zn11  S    
C78   H98   S    
C66   C67   S    
C16   H139  S    
C72   H85   S    
C24   S11   S    
C3    C24   A    
C82   H106  S    
C139  O44   A    
C13   C172  A    
C114  C171  A    
C49   H29   S    
O104  S3    D    
C146  C155  S    
C155  C159  A    
C163  H109  S    
C156  C160  A    
C43   H18   S    
C109  C166  A    
C36   H193  S    
C55   H47   S    
C35   S12   S    
C25   C26   S    
C65   H69   S    
O94   S11   D    
C60   H56   S    
O20   Zn1   S    
C145  O59   A    
H177  O99   S    
H176  O96   S    
C146  O60   A    
C93   C106  A    
O90   S10   D    
H174  O93   S    
C110  C167  A    
C172  O82   S    
C31   C32   S    
O47   Zn4   S    
C17   C18   S    
O32   Zn2   S    
C17   O79   S    
C145  C154  S    
C4    O75   S    
O34   Zn4   S    
C150  C155  A    
C134  O28   A    
C77   H97   S    
O25   Zn6   S    
C88   C118  S    
C137  O24   A    
C70   H80   S    
C90   C99   A    
C9    H123  S    
C120  C121  A    
C54   C55   S    
C37   H196  S    
C53   H41   S    
C140  O13   A    
O28   Zn13  S    
C26   H163  S    
C19   H147  S    
O49   Zn16  S    
C39   H7    S    
C140  O40   A    
C143  O50   A    
C77   H96   S    
C89   C98   A    
C81   H104  S    
C87   C129  S    
C137  O31   A    
C71   C72   S    
C21   H151  S    
C28   H167  S    
C67   H73   S    
O56   Zn8   S    
O42   Zn16  S    
C169  O78   S    
C23   H157  S    
C53   H40   S    
C4    H112  S    
C56   C58   S    
O13   Zn7   S    
C34   C36   S    
C61   C62   S    
C130  C142  S    
C10   C11   S    
C63   C64   S    
C159  S6    S    
C7    O76   S    
H180  O109  S    
C14   C15   S    
C47   H25   S    
C24   C86   A    
O22   Zn10  S    
C133  O20   A    
C3    O83   S    
O2    Zn8   S    
C49   H31   S    
C41   C42   S    
O47   Zn8   S    
C2    S9    S    
C36   H195  S    
C46   S2    S    
C160  S7    S    
C1    O38   A    
C55   H45   S    
C77   C78   S    
O69   Zn6   S    
C136  O23   A    
O38   Zn12  S    
C29   H170  S    
C57   C89   A    
C48   H28   S    
C141  O45   A    
C28   C29   S    
C133  O27   A    
C30   C31   S    
C167  O76   S    
C22   H155  S    
C35   C166  A    
C18   C19   S    
C71   H81   S    
O101  S2    D    
O25   Zn15  S    
C7    H119  S    
C33   H190  S    
O84   S8    D    
C37   O112  S    
C109  C131  S    
O36   Zn7   S    
C94   O3    S    
C68   S4    S    
C110  C132  S    
C70   C71   S    
O80   Zn5   S    
C78   H100  S    
O107  S4    D    
O67   S5    S    
C70   H78   S    
C9    H125  S    
C25   H160  S    
C62   H61   S    
C54   H43   S    
C72   H84   S    
C52   H39   S    
C164  H142  S    
O88   S9    D    
C45   H21   S    
C60   O9    S    
C16   H138  S    
C32   H187  S    
C102  H13   S    
O36   Zn16  S    
O23   Zn11  S    
C47   O5    S    
C46   C167  A    
C76   O15   S    
C73   H86   S    
C58   C59   S    
C53   C54   S    
C80   H103  S    
C13   S10   S    
C107  O37   A    
C6    H116  S    
C149  C154  A    
C70   O12   S    
C161  H1    S    
C159  C160  A    
C162  C170  A    
C12   H133  S    
O24   Zn10  S    
C30   O110  S    
C147  C156  S    
C117  C127  A    
O71   S6    S    
C64   H65   S    
C26   H162  S    
C86   C96   S    
C20   H150  S    
C48   C49   S    
O55   Zn7   S    
C52   H37   S    
O53   Zn5   S    
C165  H175  S    
C79   C162  A    
C73   O14   S    
O51   Zn3   S    
C44   C45   S    
O85   S8    D    
C42   H16   S    
C75   H92   S    
C138  O26   A    
C95   C100  A    
O72   S7    D    
O45   Zn13  S    
C32   H188  S    
O17   Zn8   S    
C1    C83   S    
O106  S3    S    
C131  O29   A    
C106  H57   S    
O103  S2    S    
C64   C65   S    
C108  C116  A    
H79   O64   S    
C38   C39   S    
O40   Zn3   S    
C66   H72   S    
C158  S5    S    
C61   H59   S    
O47   Zn2   S    
C145  O54   A    
C119  O9    S    
C153  C157  A    
C59   H53   S    
C128  C143  S    
C10   O77   S    
C129  O2    A    
C63   H63   S    
C92   C105  A    
C89   C151  S    
C105  H46   S    
C142  O51   A    
C41   H11   S    
C123  O14   S    
C111  C168  A    
C144  O57   A    
C45   H23   S    
C16   H140  S    
O35   Zn14  S    
C43   O4    S    
C56   O8    S    
O58   Zn5   S    
C82   H107  S    
C91   C104  A    
H179  O106  S    
C81   C82   S    
C58   H50   S    
O95   S11   D    
C11   H128  S    
O91   Zn6   S    
C31   H184  S    
C83   C92   A    
C94   C108  A    
C32   H185  S    
C8    H122  S    
C124  O15   S    
O62   S1    D    
O87   S9    D    
C44   H19   S    
C36   H194  S    
C15   C16   S    
O25   Zn9   S    
O108  S4    D    
H172  O86   S    
C144  C153  S    
C96   O35   A    
C74   H89   S    
C85   O69   A    
C86   C94   A    
C50   O6    S    
O70   S6    D    
C27   H166  S    
C108  H68   S    
O43   Zn2   S    
C8    C9    S    
C125  C128  A    
C165  H153  S    
C5    H113  S    
C6    H117  S    
C144  O53   A    
C163  H131  S    
C42   H14   S    
C10   H127  S    
C138  O32   A    
O48   Zn15  S    
C101  H2    S    
C14   H134  S    
C127  C139  S    
C23   O82   S    
C50   C51   S    
C46   C88   A    
C151  O41   A    
C97   O5    S    
C121  O11   S    
C74   C75   S    
C99   O7    S    
C105  C114  A    
C76   C77   S    
C55   H44   S    
C51   H36   S    
C111  C133  S    
O74   S7    S    
C150  C165  S    
C136  O34   A    
C104  C113  A    
C67   C69   S    
C57   S3    S    
C146  O55   A    
C28   H168  S    
C69   H76   S    
O89   S9    S    
C47   C48   S    
C30   H181  S    
C171  O81   S    
C142  O49   A    
C80   H102  S    
C33   C34   S    
C33   H189  S    
C18   H145  S    
C102  C111  A    
C152  C164  S    
C34   H191  S    
C40   C41   S    
O98   S12   D    
C95   O4    S    
C150  C152  A    
C117  O8    S    
C116  C138  S    
C1    O58   A    
C31   H183  S    
C164  H164  S    
C49   H30   S    
O41   Zn4   S    
C148  C163  S    
C80   C81   S    
O25   Zn13  S    
C11   C12   S    
C40   H10   S    
C50   H32   S    
C80   O16   S    
C65   H70   S    
C29   H169  S    
O63   S1    D    
C157  S1    S    
C60   H55   S    
O100  S2    D    
C121  C126  A    
H110  O74   S    
C123  C128  A    
C22   H156  S    
C98   O6    S    
C23   C25   S    
C166  O75   S    
C50   H33   S    
C149  C161  S    
O31   Zn16  S    
C43   H17   S    
C12   H130  S    
C148  C153  A    
C76   H95   S    
C27   C28   S    
C38   H5    S    
C65   H67   S    
O57   Zn1   S    
C19   H146  S    
C122  C123  A    
C170  O79   S    
C122  C130  A    
C9    H124  S    
C97   C101  A    
O21   Zn9   S    
C124  C125  A    
C25   H159  S    
