data_mof_unit_4593.cif
_audit_creation_date              2012-12-10T16:34:45-0500
_audit_creation_method            fapswitch 2.2
_symmetry_space_group_name_H-M    P1
_symmetry_Int_Tables_number       1
_space_group_crystal_system       triclinic
_cell_length_a                    28.188592
_cell_length_b                    18.587187
_cell_length_c                    17.092425
_cell_angle_alpha                 89.682077
_cell_angle_beta                  60.816627
_cell_angle_gamma                 89.857754
_cell_volume                      7818.61672985

loop_
_atom_site_label
_atom_site_type_symbol
_atom_type_description
_atom_site_fract_x
_atom_site_fract_y
_atom_site_fract_z
_atom_type_partial_charge
C1    C     C_R   0.701749 0.268228 0.676052 0.980469
C2    C     C_R   0.090153 0.496770 0.528061 0.010838
C3    C     C_R   0.201224 0.199386 0.895528 -0.086770
C4    C     C_R   0.077375 0.095091 0.930930 0.933310
C5    C     C_R   0.928289 0.898014 0.064552 0.943759
C6    C     C_R   0.923077 0.096109 0.068383 0.934105
C7    C     C_R   0.075666 0.902523 0.932864 0.926891
C8    C     C_R   0.578941 0.592391 0.928415 0.969289
C9    C     C_R   0.424370 0.402538 0.067217 0.926957
C10   C     C_R   0.423069 0.595818 0.068516 0.947247
C11   C     C_R   0.574658 0.401150 0.933772 0.938386
C12   C     C_R   0.553854 0.125721 0.487618 -0.044728
C13   C     C_R   0.408339 0.996391 0.476859 0.011439
C14   C     C_R   0.457406 0.865237 0.480712 -0.060145
C15   C     C_R   0.450418 0.125982 0.500291 -0.047449
C16   C     C_R   0.540952 0.865818 0.526641 -0.073768
C17   C     C_R   0.047058 0.626350 0.505373 -0.051587
C18   C     C_R   0.955758 0.365780 0.485319 -0.058093
C19   C     C_R   0.942909 0.625601 0.520184 -0.045126
C20   C     C_R   0.040594 0.365483 0.527636 -0.057365
C21   C     C_R   0.528971 0.191981 0.487554 0.144249
C22   C     C_R   0.476922 0.799307 0.496164 0.150442
C23   C     C_R   0.476235 0.192110 0.496488 0.137897
C24   C     C_R   0.593383 0.996614 0.519338 0.010805
C25   C     C_R   0.519558 0.799492 0.517328 0.135621
C26   C     C_R   0.020901 0.692336 0.508979 0.140655
C27   C     C_R   0.977013 0.299608 0.495787 0.149408
C28   C     C_R   0.967936 0.691983 0.518708 0.144335
C29   C     C_R   0.020623 0.299462 0.514285 0.150844
C30   C     C_R   0.477246 0.061145 0.494494 -0.002088
C31   C     C_R   0.522187 0.930446 0.508753 -0.006227
C32   C     C_R   0.526084 0.061101 0.496693 -0.003596
C33   C     C_R   0.478046 0.930287 0.492580 -0.007197
C34   C     C_R   0.970896 0.561133 0.511551 -0.003335
C35   C     C_R   0.078661 0.369187 0.557900 0.207310
C36   C     C_R   0.019408 0.430544 0.516265 -0.005371
C37   C     C_R   0.020092 0.561415 0.512761 -0.004377
C38   C     C_R   0.974796 0.430527 0.501405 -0.005744
C39   C     C_R   0.949703 0.495863 0.501207 0.021608
C40   C     C_R   0.043213 0.496159 0.518913 0.021075
C41   C     C_R   0.454519 0.995812 0.488189 0.020854
C42   C     C_R   0.547399 0.995925 0.507628 0.019122
C43   C     C_R   0.887917 0.432875 0.464281 -0.032278
C44   C     C_R   0.118547 0.561347 0.517056 -0.040649
C45   C     C_R   0.109123 0.432613 0.546100 -0.034070
C46   C     C_R   0.889825 0.620518 0.532949 0.197766
C47   C     C_R   0.875525 0.560417 0.498068 -0.038544
C48   C     C_R   0.389941 0.932385 0.458118 -0.031125
C49   C     C_R   0.622101 0.060795 0.508244 -0.042131
C50   C     C_R   0.610776 0.933090 0.541309 -0.032844
C51   C     C_R   0.380210 0.060961 0.486157 -0.042676
C52   C     C_R   0.842212 0.434806 0.449971 -0.140003
C53   C     C_R   0.162510 0.562447 0.536698 -0.163384
C54   C     C_R   0.156764 0.434331 0.554933 -0.144863
C55   C     C_R   0.835037 0.562242 0.470498 -0.159480
C56   C     C_R   0.343047 0.934440 0.446770 -0.144574
C57   C     C_R   0.919300 0.370199 0.451768 0.210409
C58   C     C_R   0.664116 0.062304 0.532424 -0.163647
C59   C     C_R   0.657644 0.934712 0.552139 -0.137643
C60   C     C_R   0.337196 0.062423 0.464398 -0.161946
C61   C     C_R   0.823207 0.500180 0.437472 0.084922
C62   C     C_R   0.176307 0.499633 0.566350 0.092365
C63   C     C_R   0.323882 0.999916 0.434240 0.091983
C64   C     C_R   0.677080 0.999831 0.563716 0.094144
C65   C     C_3   0.562768 0.285696 0.093707 0.119312
C66   C     C_3   0.550590 0.278618 0.190494 -0.693227
C67   C     C_3   0.322638 0.539520 0.029817 0.119087
C68   C     C_R   0.101267 0.622158 0.487252 0.208519
C69   C     C_3   0.322008 0.499275 0.953092 -0.695893
C70   C     C_3   0.425256 0.297326 0.902416 0.147251
C71   C     C_3   0.452103 0.331546 0.809607 -0.724482
C72   C     C_3   0.719645 0.551695 0.902476 0.095448
C73   C     C_3   0.721896 0.480888 0.945250 -0.751413
C74   C     C_3   0.073667 0.796654 0.097744 0.146562
C75   C     C_3   0.046301 0.831439 0.189818 -0.725578
C76   C     C_3   0.823377 0.056689 0.009540 0.123289
C77   C     C_3   0.806459 0.043361 0.938913 -0.761932
C78   C     C_3   0.946184 0.734355 0.970822 0.111749
C79   C     C_R   0.578988 0.870641 0.557088 0.200703
C80   C     C_3   0.988395 0.713788 0.875974 -0.720488
C81   C     C_3   0.177871 0.037632 0.968750 0.114618
C82   C     C_3   0.179574 0.996337 0.044420 -0.694167
C83   C     C_3   0.676168 0.445705 0.732071 0.093454
C84   C     C_3   0.670788 0.499426 0.669405 -0.684925
C85   C     C_3   0.445866 0.750394 0.135896 0.125669
C86   C     C_3   0.504062 0.735231 0.114355 -0.725169
C87   C     C_3   0.321863 0.445348 0.272249 0.105233
C88   C     C_3   0.329064 0.499371 0.332168 -0.681732
C89   C     C_3   0.538715 0.727088 0.866170 0.139420
C90   C     C_R   0.396642 0.121536 0.516815 0.211510
C91   C     C_3   0.487670 0.701951 0.864050 -0.627841
C92   C     C_3   0.177742 0.945162 0.726910 0.104649
C93   C     C_3   0.170428 0.999401 0.666677 -0.679443
C94   C     C_3   0.946262 0.247701 0.142555 0.116800
C95   C     C_3   0.003682 0.231329 0.124278 -0.685955
C96   C     C_3   0.828173 0.952771 0.273636 0.103744
C97   C     C_3   0.839933 0.005752 0.329499 -0.672891
C98   C     C_3   0.054734 0.251915 0.866856 0.107297
C99   C     C_3   0.996062 0.237585 0.890828 -0.681887
C100  C     C_3   0.782029 0.188123 0.766771 0.129374
C101  C     C_R   0.420353 0.868968 0.448005 0.205973
C102  C     C_3   0.814258 0.126234 0.706207 -0.694330
C103  C     C_3   0.252842 0.849298 0.214196 0.153728
C104  C     C_3   0.201724 0.892266 0.272636 -0.700558
C105  C     C_3   0.215861 0.193121 0.235835 0.140499
C106  C     C_3   0.183146 0.130302 0.294466 -0.697639
C107  C     C_3   0.699527 0.870787 0.840396 0.116739
C108  C     C_3   0.735393 0.933950 0.833839 -0.734550
C109  C     C_3   0.283034 0.690224 0.765859 0.142117
C110  C     C_3   0.314759 0.626476 0.708979 -0.703767
C111  C     C_3   0.758059 0.354507 0.209398 0.125687
C112  C     C_R   0.298643 0.732656 0.323240 0.956014
C113  C     C_R   0.607059 0.120901 0.474100 0.207137
C114  C     C_3   0.707510 0.400796 0.258804 -0.670220
C115  C     C_3   0.704073 0.835734 0.239894 0.095329
C116  C     C_3   0.643694 0.828112 0.304665 -0.723084
C117  C     C_3   0.248920 0.348677 0.782572 0.153634
C118  C     C_3   0.300350 0.389842 0.720268 -0.694165
C119  C     C_R   0.708333 0.244656 0.964331 0.120190
C120  C     C_R   0.267679 0.716107 0.056733 0.160726
C121  C     C_R   0.290050 0.246402 0.037223 0.098255
C122  C     C_R   0.729299 0.722051 0.942257 0.039637
C123  C     C_R   0.209861 0.745619 0.962945 0.100954
C124  C     C_R   0.768248 0.221757 0.056563 0.161804
C125  C     C_R   0.789922 0.756118 0.033567 0.064131
C126  C     C_R   0.232096 0.215947 0.943963 0.160579
C127  C     C_R   0.753386 0.287755 0.946824 -0.295574
C128  C     C_R   0.298238 0.268272 0.324138 0.976824
C129  C     C_R   0.224512 0.671645 0.067532 -0.186628
C130  C     C_R   0.248094 0.291774 0.044733 -0.275041
C131  C     C_R   0.779901 0.757436 0.898472 -0.215653
C132  C     C_R   0.252619 0.790323 0.952984 -0.280088
C133  C     C_R   0.722426 0.179478 0.075776 -0.216246
C134  C     C_R   0.743792 0.710920 0.071779 -0.233614
C135  C     C_R   0.274501 0.170793 0.935594 -0.185541
C136  C     C_R   0.784262 0.275207 0.989651 0.169444
C137  C     C_R   0.197224 0.684191 0.018328 0.159867
C138  C     C_R   0.217838 0.275441 0.001980 0.141461
C139  C     C_R   0.699119 0.736706 0.676987 0.961527
C140  C     C_R   0.806443 0.781648 0.944916 0.198001
C141  C     C_R   0.282890 0.774248 0.995931 0.142905
C142  C     C_R   0.693997 0.188454 0.027709 0.170121
C143  C     C_R   0.710245 0.702599 0.033159 0.198005
C144  C     C_R   0.301903 0.183964 0.984396 0.157831
C145  C     C_R   0.633791 0.310069 0.954237 0.335704
C146  C     C_R   0.340321 0.648160 0.070966 0.335781
C147  C     C_R   0.361918 0.316972 0.048333 0.333007
C148  C     C_R   0.663917 0.644987 0.913848 0.378929
C149  C     C_R   0.137811 0.815986 0.951898 0.332668
C150  C     C_R   0.201744 0.768225 0.676006 0.975842
C151  C     C_R   0.843823 0.156099 0.065472 0.356015
C152  C     C_R   0.870272 0.802008 0.052835 0.380729
C153  C     C_R   0.159993 0.147263 0.928983 0.346777
C154  C     C_R   0.617485 0.347968 0.898592 -0.320395
C155  C     C_R   0.376558 0.643635 0.106694 -0.330023
C156  C     C_R   0.380295 0.351344 0.103012 -0.305467
C157  C     C_R   0.623078 0.643730 0.888326 -0.324962
C158  C     C_R   0.119544 0.850934 0.897123 -0.307702
C159  C     C_R   0.877906 0.146618 0.104748 -0.328234
C160  C     C_R   0.884834 0.846870 0.104849 -0.331998
C161  C     C_R   0.798819 0.233061 0.323257 0.956089
C162  C     C_R   0.123890 0.142895 0.892928 -0.328514
C163  C     C_R   0.645517 0.339605 0.806749 0.301142
C164  C     C_R   0.368589 0.686064 0.178589 0.328144
C165  C     C_R   0.353458 0.341238 0.194334 0.292177
C166  C     C_R   0.626020 0.690284 0.821659 0.303259
C167  C     C_R   0.146243 0.840887 0.805716 0.295980
C168  C     C_R   0.868850 0.186085 0.179295 0.322259
C169  C     C_R   0.853980 0.847256 0.197160 0.301452
C170  C     C_R   0.131587 0.186181 0.821573 0.330919
C171  C     C_R   0.679954 0.281498 0.771324 -0.282367
C172  C     C_R   0.793513 0.778070 0.327699 0.957990
C173  C     C_R   0.319235 0.720083 0.227220 -0.308627
C174  C     C_R   0.319409 0.282724 0.229392 -0.286048
C175  C     C_R   0.673303 0.729525 0.775156 -0.278592
C176  C     C_R   0.180390 0.782408 0.770855 -0.287731
C177  C     C_R   0.820006 0.221465 0.226997 -0.309684
C178  C     C_R   0.812109 0.799473 0.235541 -0.299434
C179  C     C_R   0.180805 0.220303 0.772847 -0.307242
C180  C     C_R   0.697888 0.242447 0.824588 0.339529
C181  C     C_R   0.286961 0.734950 0.184921 0.365830
C182  C     C_R   0.300890 0.244813 0.176539 0.356847
C183  C     C_R   0.201353 0.232662 0.676681 0.957247
C184  C     C_R   0.701380 0.750214 0.821573 0.358864
C185  C     C_R   0.198744 0.744096 0.824020 0.352541
C186  C     C_R   0.788748 0.238944 0.183706 0.368866
C187  C     C_R   0.785471 0.779832 0.186561 0.338066
C188  C     C_R   0.213048 0.235033 0.815188 0.366273
C189  C     C_R   0.693833 0.128024 0.526083 0.924426
C190  C     C_R   0.308707 0.870578 0.465163 0.894113
C191  C     C_R   0.306601 0.128132 0.472717 0.920163
C192  C     C_R   0.691489 0.870565 0.534365 0.874730
C193  C     C_R   0.193371 0.628056 0.527405 0.920715
C194  C     C_R   0.904308 0.496356 0.487839 0.010612
C195  C     C_R   0.808555 0.370697 0.465808 0.895234
C196  C     C_R   0.805963 0.628063 0.474649 0.922139
C197  C     C_R   0.191257 0.370422 0.535159 0.893688
C198  C     C_R   0.677848 0.262023 0.915261 -0.074719
C199  C     C_R   0.298714 0.699618 0.104911 -0.087788
C200  C     C_R   0.319409 0.266644 0.086847 -0.096229
C201  C     C_R   0.697600 0.706517 0.893128 -0.113727
C202  C     C_R   0.180283 0.765691 0.913535 -0.094131
C203  C     C_R   0.801175 0.206252 0.101990 -0.095226
C204  C     C_R   0.815462 0.779256 0.090584 -0.111412
H1    H     H_    0.766211 0.329244 0.895912 0.157811
H2    H     H_    0.528122 0.313848 0.093277 0.153635
H3    H     H_    0.200003 0.243995 0.274246 0.141418
H4    H     H_    0.198918 0.079113 0.257605 0.245862
H5    H     H_    0.186086 0.128556 0.356916 0.271440
H6    H     H_    0.139921 0.136003 0.311804 0.219023
H7    H     H_    0.672093 0.859435 0.913115 0.134573
H8    H     H_    0.674518 0.885996 0.808782 0.169550
H9    H     H_    0.765437 0.944984 0.762719 0.280200
H10   H     H_    0.710176 0.982649 0.863721 0.242978
H11   H     H_    0.757568 0.920804 0.870611 0.247167
H12   H     H_    0.289680 0.690511 0.824519 0.156050
H13   H     H_    0.545646 0.332768 0.220683 0.261599
H14   H     H_    0.299799 0.740664 0.726284 0.143063
H15   H     H_    0.297788 0.575770 0.746965 0.246835
H16   H     H_    0.312263 0.625093 0.646141 0.272456
H17   H     H_    0.357944 0.630602 0.692334 0.218045
H18   H     H_    0.777012 0.367777 0.136976 0.157556
H19   H     H_    0.786905 0.368041 0.234124 0.153748
H20   H     H_    0.688334 0.390562 0.332061 0.268173
H21   H     H_    0.718614 0.458573 0.245406 0.216226
H22   H     H_    0.677907 0.387972 0.235636 0.259498
H23   H     H_    0.709591 0.852468 0.173317 0.151789
H24   H     H_    0.512475 0.247595 0.229899 0.215108
H25   H     H_    0.719971 0.878853 0.266082 0.107341
H26   H     H_    0.625735 0.786276 0.280893 0.280851
H27   H     H_    0.637718 0.812517 0.371563 0.264831
H28   H     H_    0.622793 0.880135 0.310406 0.203271
H29   H     H_    0.236357 0.365604 0.851990 0.163859
H30   H     H_    0.216559 0.363334 0.765783 0.154150
H31   H     H_    0.313533 0.376029 0.649444 0.271299
H32   H     H_    0.292526 0.448481 0.729537 0.204254
H33   H     H_    0.333359 0.376008 0.735516 0.251912
H34   H     H_    0.584399 0.250111 0.193348 0.270161
H35   H     H_    0.279980 0.544853 0.084780 0.111206
H36   H     H_    0.345286 0.506657 0.055155 0.144727
H37   H     H_    0.364250 0.490315 0.898463 0.262924
H38   H     H_    0.301757 0.446333 0.977249 0.225803
H39   H     H_    0.299399 0.530887 0.926545 0.243640
H40   H     H_    0.411865 0.242542 0.896843 0.169705
H41   H     H_    0.212753 0.626034 0.112685 0.168422
H42   H     H_    0.456219 0.293296 0.924997 0.128855
H43   H     H_    0.466627 0.386475 0.812389 0.253724
H44   H     H_    0.487320 0.298463 0.762620 0.220736
H45   H     H_    0.422564 0.335062 0.784334 0.253318
H46   H     H_    0.754563 0.585027 0.893862 0.174179
H47   H     H_    0.724245 0.540167 0.835215 0.117052
H48   H     H_    0.689540 0.444250 0.950076 0.262277
H49   H     H_    0.762129 0.455440 0.903592 0.206187
H50   H     H_    0.716220 0.490382 0.013396 0.277948
H51   H     H_    0.086269 0.741694 0.105066 0.169959
H52   H     H_    0.237245 0.338609 0.087527 0.164677
H53   H     H_    0.043222 0.793005 0.074042 0.119151
H54   H     H_    0.032510 0.886598 0.185372 0.255377
H55   H     H_    0.010521 0.798985 0.236783 0.217985
H56   H     H_    0.075266 0.834507 0.216265 0.253184
H57   H     H_    0.785846 0.057579 0.076374 0.096904
H58   H     H_    0.848643 0.010784 0.009652 0.180123
H59   H     H_    0.842851 0.034088 0.872680 0.274196
H60   H     H_    0.779434 0.995704 0.958458 0.214822
H61   H     H_    0.784116 0.090323 0.933057 0.255504
H62   H     H_    0.925377 0.684479 0.008138 0.147556
H63   H     H_    0.798304 0.770558 0.828192 0.254034
H64   H     H_    0.968007 0.759523 0.003209 0.102824
H65   H     H_    0.010358 0.762581 0.837736 0.270568
H66   H     H_    0.018191 0.675710 0.878044 0.203999
H67   H     H_    0.968335 0.687688 0.841430 0.264818
H68   H     H_    0.220236 0.043187 0.912738 0.110304
H69   H     H_    0.154578 0.005373 0.944500 0.144089
H70   H     H_    0.137633 0.987151 0.100050 0.264406
H71   H     H_    0.199629 0.943472 0.019595 0.225142
H72   H     H_    0.202877 0.027299 0.069840 0.244053
H73   H     H_    0.718844 0.425601 0.698716 0.115497
H74   H     H_    0.264057 0.836286 0.908162 0.164088
H75   H     H_    0.667457 0.474526 0.794571 0.119010
H76   H     H_    0.628877 0.521541 0.701395 0.265923
H77   H     H_    0.699881 0.544425 0.654494 0.196904
H78   H     H_    0.679858 0.472760 0.605612 0.264669
H79   H     H_    0.433506 0.804670 0.165830 0.177054
H80   H     H_    0.445880 0.752367 0.070590 0.095002
H81   H     H_    0.518407 0.685806 0.074416 0.246455
H82   H     H_    0.530916 0.780595 0.075351 0.194060
H83   H     H_    0.507082 0.726283 0.175744 0.304802
H84   H     H_    0.279656 0.423765 0.309362 0.118208
H85   H     H_    0.710454 0.136687 0.124966 0.179870
H86   H     H_    0.327417 0.474394 0.211152 0.093774
H87   H     H_    0.370515 0.522933 0.296501 0.265802
H88   H     H_    0.298781 0.543325 0.350131 0.195172
H89   H     H_    0.322994 0.472499 0.394590 0.263272
H90   H     H_    0.542608 0.786437 0.858266 0.160666
H91   H     H_    0.532057 0.715275 0.934370 0.080098
H92   H     H_    0.489748 0.643578 0.850153 0.279689
H93   H     H_    0.451120 0.713324 0.929248 0.198800
H94   H     H_    0.482134 0.729848 0.811963 0.257878
H95   H     H_    0.219953 0.923645 0.689832 0.118232
H96   H     H_    0.730604 0.685262 0.135778 0.235707
H97   H     H_    0.172274 0.974015 0.787728 0.092543
H98   H     H_    0.128966 0.022889 0.702279 0.264951
H99   H     H_    0.200696 0.043378 0.648310 0.195466
H100  H     H_    0.176444 0.972742 0.604494 0.263102
H101  H     H_    0.933300 0.301523 0.173366 0.174624
H102  H     H_    0.947950 0.251797 0.076270 0.097078
H103  H     H_    0.021275 0.188666 0.073544 0.232558
H104  H     H_    0.029287 0.280190 0.097986 0.224916
H105  H     H_    0.004038 0.212330 0.185582 0.295123
H106  H     H_    0.785246 0.934590 0.314448 0.108648
H107  H     H_    0.285753 0.124361 0.892379 0.168707
H108  H     H_    0.833052 0.981501 0.212690 0.103972
H109  H     H_    0.882325 0.025785 0.290670 0.267774
H110  H     H_    0.811641 0.052139 0.347818 0.203179
H111  H     H_    0.834255 0.979140 0.391838 0.255835
H112  H     H_    0.067096 0.306421 0.837019 0.178175
H113  H     H_    0.055942 0.253173 0.931127 0.103195
H114  H     H_    0.980544 0.191906 0.937881 0.228713
H115  H     H_    0.970875 0.285714 0.923305 0.215309
H116  H     H_    0.992303 0.223328 0.831278 0.301899
H117  H     H_    0.788253 0.185317 0.825783 0.152913
H118  H     H_    0.565037 0.230751 0.066655 0.154154
H119  H     H_    0.798715 0.239852 0.730293 0.145218
H120  H     H_    0.811922 0.127774 0.643224 0.272812
H121  H     H_    0.857392 0.130184 0.689921 0.222721
H122  H     H_    0.797723 0.074163 0.740917 0.249760
H123  H     H_    0.267207 0.865137 0.143588 0.163379
H124  H     H_    0.284377 0.863513 0.232913 0.153722
H125  H     H_    0.186707 0.879256 0.344425 0.269652
H126  H     H_    0.210817 0.950613 0.261705 0.206243
H127  H     H_    0.169590 0.879265 0.255141 0.251136
H128  H     H_    0.209028 0.193757 0.177352 0.156526
I1    I     I_    0.063582 0.200784 0.500409 -0.293318
I2    I     I_    0.215698 0.501980 0.647056 -0.344452
I3    I     I_    0.285200 0.003023 0.352366 -0.336020
I4    I     I_    0.715509 0.002200 0.645867 -0.323198
I5    I     I_    0.059613 0.308800 0.674175 -0.290175
I6    I     I_    0.828487 0.654269 0.661904 -0.377255
I7    I     I_    0.943370 0.315444 0.330514 -0.308885
I8    I     I_    0.157230 0.654865 0.354303 -0.308428
I9    I     I_    0.559863 0.817861 0.678056 -0.307560
I10   I     I_    0.339744 0.151685 0.649644 -0.311408
I11   I     I_    0.441594 0.809718 0.330508 -0.304472
I12   I     I_    0.929995 0.791006 0.515234 -0.227566
I13   I     I_    0.666735 0.150632 0.342669 -0.338348
I14   I     I_    0.635903 0.109118 0.044880 -0.408065
I15   I     I_    0.353986 0.836106 0.959719 -0.414908
I16   I     I_    0.357655 0.105347 0.980416 -0.324915
I17   I     I_    0.628314 0.675604 0.127212 -0.309455
I18   I     I_    0.140969 0.605660 0.024790 -0.337970
I19   I     I_    0.856484 0.336022 0.945683 -0.440250
I20   I     I_    0.862535 0.866138 0.874622 -0.319556
I21   I     I_    0.148171 0.339381 0.034475 -0.415705
I22   I     I_    0.936196 0.200364 0.503625 -0.297462
I23   I     I_    0.058585 0.791445 0.511892 -0.244425
I24   I     I_    0.559241 0.699746 0.513775 -0.237114
I25   I     I_    0.438449 0.290965 0.492073 -0.282114
I26   I     I_    0.434851 0.700558 0.507453 -0.290948
I27   I     I_    0.567401 0.291094 0.487966 -0.265289
I28   I     I_    0.787239 0.503531 0.351597 -0.365496
O1    O     O_R   0.746490 0.236330 0.638080 -0.618034
O2    O     O_R   0.325830 0.813840 0.483730 -0.613721
O3    O     O_R   0.325830 0.186160 0.483730 -0.607045
O4    O     O_R   0.674170 0.813840 0.516270 -0.622318
O5    O     O_R   0.174170 0.686160 0.516270 -0.607283
O6    O     O_R   0.825830 0.313840 0.483730 -0.614901
O7    O     O_R   0.825830 0.686160 0.483730 -0.607967
O8    O     O_R   0.174170 0.313840 0.516270 -0.614241
O9    O     O_R   0.739960 0.127620 0.525000 -0.608008
O10   O     O_R   0.260040 0.872380 0.475000 -0.617368
O11   O     O_R   0.260040 0.127620 0.475000 -0.605224
O12   O     O_R   0.253510 0.763670 0.361920 -0.581702
O13   O     O_R   0.739960 0.872380 0.525000 -0.612208
O14   O     O_R   0.239960 0.627620 0.525000 -0.604727
O15   O     O_R   0.760040 0.372380 0.475000 -0.614384
O16   O     O_R   0.760040 0.627620 0.475000 -0.600217
O17   O     O_R   0.239960 0.372380 0.525000 -0.617222
O18   O     O_R   0.680700 0.294870 0.629350 -0.570575
O19   O     O_R   0.319300 0.705130 0.370650 -0.572686
O20   O     O_R   0.319300 0.294870 0.370650 -0.569163
O21   O     O_R   0.680700 0.705130 0.629350 -0.580687
O22   O     O_R   0.180700 0.794870 0.629350 -0.568820
O23   O     O_R   0.253510 0.236330 0.361920 -0.616913
O24   O     O_R   0.819300 0.205130 0.370650 -0.577209
O25   O     O_R   0.819300 0.794870 0.370650 -0.580979
O26   O     O_R   0.180700 0.205130 0.629350 -0.573931
O27   O     O_R   0.062020 0.072840 0.007170 -0.599199
O28   O     O_R   0.937980 0.927160 0.992830 -0.595209
O29   O     O_R   0.937980 0.072840 0.992830 -0.594532
O30   O     O_R   0.062020 0.927160 0.007170 -0.613020
O31   O     O_R   0.562020 0.572840 0.007170 -0.576583
O32   O     O_R   0.437980 0.427160 0.992830 -0.607763
O33   O     O_R   0.437980 0.572840 0.992830 -0.610462
O34   O     O_R   0.746490 0.763670 0.638080 -0.561237
O35   O     O_R   0.562020 0.427160 0.007170 -0.592026
O36   O     O_R   0.947860 0.073950 0.109290 -0.580887
O37   O     O_R   0.052140 0.926050 0.890710 -0.569247
O38   O     O_R   0.052140 0.073950 0.890710 -0.578787
O39   O     O_R   0.947860 0.926050 0.109290 -0.585772
O40   O     O_R   0.447860 0.573950 0.109290 -0.579654
O41   O     O_R   0.552140 0.426050 0.890710 -0.585738
O42   O     O_R   0.552140 0.573950 0.890710 -0.607174
O43   O     O_R   0.447860 0.426050 0.109290 -0.584692
O44   O     O_3   0.611354 0.325505 0.044642 -0.571058
O45   O     O_R   0.246490 0.736330 0.638080 -0.617331
O46   O     O_3   0.347881 0.607190 0.998332 -0.572822
O47   O     O_3   0.380146 0.339487 0.960854 -0.592786
O48   O     O_3   0.669753 0.586212 0.958642 -0.559462
O49   O     O_3   0.119555 0.837913 0.039338 -0.591617
O50   O     O_3   0.854340 0.120764 0.987619 -0.560398
O51   O     O_3   0.908412 0.782237 0.966907 -0.557884
O52   O     O_3   0.152837 0.105172 0.001050 -0.567723
O53   O     O_3   0.638992 0.388590 0.751020 -0.549541
O54   O     O_3   0.410392 0.697967 0.197418 -0.547724
O55   O     O_3   0.360466 0.389432 0.249742 -0.548981
O56   O     O_R   0.753510 0.263670 0.361920 -0.573603
O57   O     O_3   0.585760 0.693124 0.797037 -0.547690
O58   O     O_3   0.139145 0.889221 0.749982 -0.546649
O59   O     O_3   0.909704 0.194756 0.201064 -0.551454
O60   O     O_3   0.864531 0.893982 0.249997 -0.546274
O61   O     O_3   0.089325 0.199726 0.804372 -0.549156
O62   O     O_3   0.726549 0.178665 0.792813 -0.561419
O63   O     O_3   0.239834 0.775429 0.226533 -0.556180
O64   O     O_3   0.271350 0.181609 0.208650 -0.554243
O65   O     O_3   0.732917 0.811543 0.795063 -0.576601
O66   O     O_3   0.227447 0.680299 0.792822 -0.555165
O67   O     O_R   0.753510 0.736330 0.361920 -0.573692
O68   O     O_3   0.742691 0.281473 0.224679 -0.548326
O69   O     O_3   0.729943 0.769015 0.233321 -0.578966
O70   O     O_3   0.260702 0.274472 0.772723 -0.555913
O71   O     O_R   0.246490 0.263670 0.638080 -0.581696
O72   O     O_R   0.674170 0.186160 0.516270 -0.607191
Zn1   Zn    Zn3+2 0.792340 0.208750 0.507670 1.036928
Zn2   Zn    Zn3+2 0.494040 0.500000 0.919480 0.981710
Zn3   Zn    Zn3+2 0.005960 0.000000 0.080520 1.002611
Zn4   Zn    Zn3+2 0.994040 0.000000 0.919480 1.065105
Zn5   Zn    Zn3+2 0.207660 0.791250 0.492330 1.057632
Zn6   Zn    Zn3+2 0.207660 0.208750 0.492330 1.039823
Zn7   Zn    Zn3+2 0.792340 0.791250 0.507670 1.084128
Zn8   Zn    Zn3+2 0.292340 0.708750 0.507670 1.042882
Zn9   Zn    Zn3+2 0.707660 0.291250 0.492330 1.063656
Zn10  Zn    Zn3+2 0.707660 0.708750 0.492330 1.083460
Zn11  Zn    Zn3+2 0.292340 0.291250 0.507670 1.052862
Zn12  Zn    Zn3+2 0.505960 0.500000 0.080520 1.061015

loop_
_geom_bond_atom_site_label_1
_geom_bond_atom_site_label_2
_ccdc_geom_bond_type
C49   C113  A    
C190  O2    A    
C31   C42   A    
C71   H43   S    
C50   C79   A    
C14   C33   A    
C19   C46   A    
C129  H41   S    
C16   C31   A    
C189  O72   A    
C124  C133  A    
C43   C194  A    
C50   C59   A    
C78   H62   S    
C82   H70   S    
C83   H75   S    
C52   C61   A    
C106  H4    S    
C69   H38   S    
C131  H63   S    
C106  H6    S    
O32   Zn2   S    
C67   H36   S    
C112  O12   A    
C24   C42   A    
C92   O58   S    
C131  C140  A    
C93   H100  S    
C11   C154  S    
C172  O25   A    
C13   C51   A    
C44   C53   A    
C62   I2    S    
C9    C156  S    
C186  O68   S    
C190  O10   A    
C108  H9    S    
C105  O64   S    
C135  H107  S    
C73   H48   S    
C115  O69   S    
C103  H123  S    
C100  H117  S    
C167  O58   S    
C58   C64   A    
C86   H82   S    
C183  O71   A    
C147  C200  A    
C8    C157  S    
C95   H103  S    
C158  C167  A    
C29   I1    S    
C127  C136  A    
C185  O66   S    
C142  I14   S    
O18   Zn9   S    
O8    Zn6   S    
C179  C188  A    
C124  C203  S    
O6    Zn1   S    
C72   O48   S    
C187  C204  A    
C1    C171  S    
C177  C186  A    
C120  C129  A    
C102  H120  S    
C185  C202  A    
C193  O14   A    
O15   Zn9   S    
C27   I22   S    
C115  H23   S    
C138  I21   S    
C75   H54   S    
O12   Zn5   S    
C35   I5    S    
C172  O67   A    
C164  C173  A    
C134  H96   S    
C99   H115  S    
O34   Zn7   S    
C118  H33   S    
C6    O29   A    
C98   H113  S    
C184  O65   S    
C181  O63   S    
C161  C177  S    
C130  C138  A    
O31   Zn12  S    
C15   C30   A    
C100  O62   S    
O40   Zn12  S    
C16   C25   A    
C76   H58   S    
C77   H59   S    
C116  H26   S    
C88   H88   S    
C72   C73   S    
C83   H73   S    
C28   I12   S    
O20   Zn11  S    
C10   O33   A    
C132  H74   S    
C84   H77   S    
C26   I23   S    
C16   C79   A    
C18   C38   A    
C114  H21   S    
C64   I4    S    
C48   C101  A    
C89   O57   S    
C127  H1    S    
C108  H11   S    
C180  C198  A    
C2    C45   A    
C73   H50   S    
C2    C40   A    
C128  O23   A    
C129  C137  A    
C112  O19   A    
C98   C99   S    
C94   H102  S    
C100  H119  S    
C11   O41   A    
C180  O62   S    
C110  H17   S    
C71   H45   S    
O9    Zn1   S    
C125  C204  S    
O3    Zn11  S    
C123  C132  A    
C27   C29   A    
C119  C198  S    
C152  O51   S    
C164  O54   S    
C121  C130  A    
C104  H125  S    
C174  C182  A    
C150  O45   A    
C85   C86   S    
C65   O44   S    
C133  C142  A    
C122  C201  S    
O4    Zn10  S    
C37   C40   A    
C51   C90   A    
C38   C39   A    
C78   C80   S    
C89   H90   S    
C115  C116  S    
C91   H92   S    
C87   H86   S    
C109  O66   S    
C88   H89   S    
C120  C199  S    
C20   C35   A    
C118  H31   S    
C140  I20   S    
C2    C44   A    
C22   C25   A    
C107  C108  S    
C30   C41   A    
C109  H14   S    
O30   Zn3   S    
C89   C91   S    
C149  C158  A    
C55   C196  S    
C134  C143  A    
C35   C45   A    
C66   H34   S    
C121  C144  A    
C99   H116  S    
C122  C143  A    
O7    Zn7   S    
C139  O21   A    
C125  C140  A    
C6    O36   A    
C197  O8    A    
C56   C190  S    
C92   H95   S    
C34   C39   A    
C9    O32   A    
C93   H98   S    
O26   Zn6   S    
O27   Zn3   S    
C91   H94   S    
C165  C174  A    
O71   Zn11  S    
C81   H68   S    
O21   Zn10  S    
C187  O69   S    
C111  H18   S    
C151  C159  A    
C19   C28   A    
O17   Zn11  S    
C83   C84   S    
C117  H29   S    
C5    C160  S    
C63   I3    S    
C110  H15   S    
C24   C50   A    
C136  I19   S    
C7    O30   A    
C145  C154  A    
C75   H55   S    
C192  O4    A    
C85   H79   S    
C97   H110  S    
C78   O51   S    
C181  C199  A    
C104  H127  S    
C122  C131  A    
C111  O68   S    
C151  O50   S    
C172  C178  S    
C132  C141  A    
C149  O49   S    
C1    O18   A    
C184  C201  A    
C120  C141  A    
O1    Zn1   S    
O16   Zn10  S    
C10   C155  S    
O13   Zn7   S    
O14   Zn8   S    
O10   Zn5   S    
C188  O70   S    
C123  C137  A    
C195  O6    A    
C128  C174  S    
C170  C179  A    
C14   C22   A    
C82   H71   S    
C145  C198  A    
C117  C118  S    
C8    O31   A    
C69   H37   S    
C84   H76   S    
C67   H35   S    
C9    O43   A    
C186  C203  A    
C4    O27   A    
C148  C157  A    
C72   H47   S    
C43   C57   A    
C61   I28   S    
C66   H24   S    
C51   C60   A    
C114  H20   S    
C149  C202  A    
C108  H10   S    
C74   O49   S    
C96   H106  S    
C119  C127  A    
C125  C134  A    
C87   C88   S    
C92   H97   S    
C34   C37   A    
C53   C193  S    
C86   H83   S    
C25   I24   S    
C147  O47   S    
C109  H12   S    
C13   C41   A    
C3    C126  S    
C176  C185  A    
C196  O16   A    
C166  C175  A    
C54   C197  S    
O56   Zn9   S    
C169  O60   S    
C107  H7    S    
C85   O54   S    
C168  C177  A    
C88   H87   S    
O42   Zn2   S    
C168  O59   S    
C80   H65   S    
C102  H121  S    
C95   H105  S    
C195  O15   A    
C137  I18   S    
O38   Zn4   S    
C146  C155  A    
C160  C169  A    
C163  O53   S    
C70   C71   S    
O39   Zn3   S    
C163  C171  A    
C74   H51   S    
C22   I26   S    
C183  O26   A    
C173  C181  A    
C59   C192  S    
C52   C195  S    
C71   H44   S    
C6    C159  S    
C161  O24   A    
C98   O61   S    
C124  C136  A    
C21   I27   S    
C90   I10   S    
C182  C200  A    
C87   H84   S    
C65   H118  S    
C69   H39   S    
C14   C101  A    
C54   C62   A    
C106  H5    S    
C84   H78   S    
C94   O59   S    
C196  O7    A    
C1    O1    A    
C121  C200  S    
C103  O63   S    
C114  H22   S    
C18   C57   A    
C162  C170  A    
C165  O55   S    
C111  H19   S    
C147  C156  A    
C81   O52   S    
C96   H108  S    
C73   H49   S    
C178  C187  A    
C113  I13   S    
C126  C135  A    
C103  H124  S    
C21   C23   A    
C4    O38   A    
C86   H81   S    
C4    C162  S    
C5    O39   A    
C95   H104  S    
O11   Zn6   S    
C46   C47   A    
C17   C68   A    
C146  O46   S    
C192  O13   A    
C104  H126  S    
C57   I7    S    
C107  H8    S    
O43   Zn12  S    
C66   H13   S    
C105  C106  S    
C197  O17   A    
C153  C162  A    
C80   H67   S    
C33   C41   A    
C36   C38   A    
C109  C110  S    
C193  O5    A    
C156  C165  A    
C92   C93   S    
C139  O34   A    
C77   H61   S    
C144  I16   S    
C111  C114  S    
C81   H69   S    
C189  O9    A    
C94   C95   S    
C43   C52   A    
C191  O3    A    
C20   C36   A    
C118  H32   S    
C182  O64   S    
C103  C104  S    
C119  C142  A    
C32   C42   A    
C152  C204  A    
C72   H46   S    
C166  O57   S    
C133  H85   S    
C175  C184  A    
C15   C90   A    
C143  I17   S    
C150  C176  S    
C76   H57   S    
C152  C160  A    
C77   H60   S    
O37   Zn4   S    
C47   C194  A    
C139  C175  S    
C83   O53   S    
C170  O61   S    
C79   I9    S    
C3    C188  A    
O36   Zn3   S    
C81   C82   S    
O72   Zn9   S    
C7    C158  S    
C10   O40   A    
C116  H28   S    
C153  O52   S    
C59   C64   A    
C161  O56   A    
C101  I11   S    
C60   C63   A    
C17   C26   A    
C91   H93   S    
C55   C61   A    
C3    C153  A    
C145  O44   S    
C159  C168  A    
C107  O65   S    
C146  C199  A    
C70   H40   S    
C8    O42   A    
C70   O47   S    
C148  O48   S    
C94   H101  S    
O41   Zn2   S    
O45   Zn8   S    
C31   C33   A    
C110  H16   S    
C15   C23   A    
C112  C173  S    
C12   C32   A    
C97   H109  S    
C23   I25   S    
C76   O50   S    
C87   O55   S    
C148  C201  A    
C105  H3    S    
C179  C183  S    
C20   C29   A    
C39   C194  A    
C150  O22   A    
C74   C75   S    
O33   Zn2   S    
C154  C163  A    
C36   C40   A    
C76   C77   S    
C89   H91   S    
C65   H2    S    
C12   C21   A    
C85   H80   S    
C49   C58   A    
C67   C69   S    
C78   H64   S    
C99   H114  S    
C82   H72   S    
O19   Zn8   S    
C117  O70   S    
C53   C62   A    
C191  O11   A    
C96   C97   S    
C58   C189  S    
C100  C102  S    
C56   C63   A    
C17   C37   A    
C141  I15   S    
O2    Zn8   S    
O28   Zn4   S    
C135  C144  A    
C70   H42   S    
C45   C54   A    
C116  H27   S    
C171  C180  A    
C44   C68   A    
O35   Zn12  S    
C169  C178  A    
C47   C55   A    
C12   C113  A    
C74   H53   S    
O5    Zn5   S    
C24   C49   A    
C48   C56   A    
C11   O35   A    
C126  C138  A    
C105  H128  S    
O67   Zn10  S    
C46   I6    S    
C93   H99   S    
C5    O28   A    
C18   C27   A    
C151  C203  A    
C19   C34   A    
C157  C166  A    
C13   C48   A    
O29   Zn4   S    
C155  C164  A    
C26   C28   A    
C123  C202  S    
C67   O46   S    
C30   C32   A    
C128  O20   A    
C117  H30   S    
C60   C191  S    
C80   H66   S    
C102  H122  S    
O25   Zn7   S    
C115  H25   S    
C68   I8    S    
C75   H56   S    
C65   C66   S    
C97   H111  S    
O23   Zn6   S    
O22   Zn5   S    
C98   H112  S    
O24   Zn1   S    
C7    O37   A    
C96   O60   S    
C167  C176  A    
C130  H52   S    
