data_mof_unit_1874.cif
_audit_creation_date              2013-03-05T15:40:17-0500
_audit_creation_method            fapswitch 2.2
_symmetry_space_group_name_H-M    P1
_symmetry_Int_Tables_number       1
_space_group_crystal_system       triclinic
_cell_length_a                    28.076419
_cell_length_b                    18.53275
_cell_length_c                    16.99886
_cell_angle_alpha                 89.98357
_cell_angle_beta                  60.783896
_cell_angle_gamma                 90.044551
_cell_volume                      7719.84100857

loop_
_atom_site_label
_atom_site_type_symbol
_atom_site_description
_atom_site_fract_x
_atom_site_fract_y
_atom_site_fract_z
_atom_type_partial_charge
O1    O     O_R   0.746490 0.236330 0.638080 -0.668520
O2    O     O_R   0.253510 0.763670 0.361920 -0.638374
O3    O     O_R   0.253510 0.236330 0.361920 -0.643565
O4    O     O_R   0.746490 0.763670 0.638080 -0.649868
O5    O     O_R   0.246490 0.736330 0.638080 -0.668494
O6    O     O_R   0.753510 0.263670 0.361920 -0.638013
O7    O     O_R   0.753510 0.736330 0.361920 -0.627977
O8    O     O_R   0.246490 0.263670 0.638080 -0.648229
O9    O     O_R   0.674170 0.186160 0.516270 -0.645863
O10   O     O_R   0.325830 0.813840 0.483730 -0.654334
O11   O     O_R   0.325830 0.186160 0.483730 -0.598104
O12   O     O_R   0.674170 0.813840 0.516270 -0.578201
O13   O     O_R   0.174170 0.686160 0.516270 -0.646301
O14   O     O_R   0.825830 0.313840 0.483730 -0.654799
O15   O     O_R   0.825830 0.686160 0.483730 -0.599972
O16   O     O_R   0.174170 0.313840 0.516270 -0.587195
O17   O     O_R   0.739960 0.127620 0.525000 -0.616665
O18   O     O_R   0.260040 0.872380 0.475000 -0.622405
O19   O     O_R   0.260040 0.127620 0.475000 -0.627969
O20   O     O_R   0.739960 0.872380 0.525000 -0.646390
O21   O     O_R   0.239960 0.627620 0.525000 -0.616736
O22   O     O_R   0.760040 0.372380 0.475000 -0.624016
O23   O     O_R   0.760040 0.627620 0.475000 -0.641282
O24   O     O_R   0.239960 0.372380 0.525000 -0.647861
O25   O     O_R   0.680700 0.294870 0.629350 -0.618610
O26   O     O_R   0.319300 0.705130 0.370650 -0.611958
O27   O     O_R   0.319300 0.294870 0.370650 -0.608940
O28   O     O_R   0.680700 0.705130 0.629350 -0.610734
O29   O     O_R   0.180700 0.794870 0.629350 -0.619873
O30   O     O_R   0.819300 0.205130 0.370650 -0.612294
O31   O     O_R   0.819300 0.794870 0.370650 -0.607879
O32   O     O_R   0.180700 0.205130 0.629350 -0.611761
C1    C     C_R   0.700706 0.265986 0.676806 0.856689
C2    C     C_R   0.299418 0.734416 0.323182 0.909985
C3    C     C_R   0.298049 0.268856 0.323490 0.892066
C4    C     C_R   0.700076 0.735484 0.676880 0.975350
C5    C     C_R   0.200688 0.765945 0.676807 0.855635
C6    C     C_R   0.799441 0.234462 0.323181 0.909248
C7    C     C_R   0.799847 0.764961 0.323070 0.880987
C8    C     C_R   0.199813 0.235998 0.676791 0.975468
C9    C     C_R   0.691469 0.129220 0.534703 0.873889
C10   C     C_R   0.304257 0.871818 0.481115 0.879405
C11   C     C_R   0.304167 0.128240 0.481369 0.930508
C12   C     C_R   0.691511 0.870763 0.534505 0.919417
C13   C     C_R   0.191405 0.629277 0.534952 0.873022
C14   C     C_R   0.804294 0.371816 0.481004 0.877182
C15   C     C_R   0.804232 0.628235 0.481179 0.913185
C16   C     C_R   0.191513 0.370782 0.534501 0.908376
Zn1   Zn    Zn3+2 0.792340 0.208750 0.507670 0.976124
Zn2   Zn    Zn3+2 0.207660 0.791250 0.492330 0.985507
Zn3   Zn    Zn3+2 0.207660 0.208750 0.492330 1.059602
Zn4   Zn    Zn3+2 0.792340 0.791250 0.507670 1.042447
Zn5   Zn    Zn3+2 0.292340 0.708750 0.507670 0.977068
Zn6   Zn    Zn3+2 0.707660 0.291250 0.492330 0.984262
Zn7   Zn    Zn3+2 0.707660 0.708750 0.492330 1.064366
Zn8   Zn    Zn3+2 0.292340 0.291250 0.507670 1.044027
C17   C     C_R   0.525082 0.131861 0.581928 0.000750
C18   C     C_R   0.431126 0.869460 0.559231 0.011638
C19   C     C_R   0.431107 0.131213 0.560194 -0.052258
C20   C     C_R   0.526594 0.867873 0.576034 -0.026272
C21   C     C_R   0.024979 0.631879 0.582215 0.002634
C22   C     C_R   0.931343 0.369479 0.558712 0.010667
C23   C     C_R   0.931262 0.631207 0.559786 -0.052133
C24   C     C_R   0.026746 0.367906 0.575658 -0.028764
C25   C     C_R   0.502537 0.198376 0.573454 -0.052252
C26   C     C_R   0.454983 0.802481 0.561201 -0.023628
C27   C     C_R   0.454764 0.198022 0.564161 -0.083665
C28   C     C_R   0.504454 0.801733 0.565171 -0.057176
C29   C     C_R   0.002338 0.698398 0.574003 -0.051605
C30   C     C_R   0.955214 0.302504 0.560640 -0.024055
C31   C     C_R   0.954772 0.698028 0.564131 -0.081613
C32   C     C_R   0.004685 0.301771 0.564603 -0.054286
C33   C     C_R   0.458044 0.066223 0.556702 0.003341
C34   C     C_R   0.504860 0.933896 0.566215 0.008773
C35   C     C_R   0.504235 0.066271 0.568651 0.015398
C36   C     C_R   0.458314 0.934317 0.555427 0.019335
C37   C     C_R   0.958202 0.566238 0.556322 0.002617
C38   C     C_R   0.005007 0.433931 0.565875 0.006897
C39   C     C_R   0.004291 0.566300 0.568549 0.015254
C40   C     C_R   0.958515 0.434339 0.554944 0.018561
C41   C     C_R   0.936515 0.500327 0.546687 -0.024340
C42   C     C_R   0.028476 0.500052 0.570846 -0.023761
C43   C     C_R   0.436300 0.000317 0.547212 -0.024325
C44   C     C_R   0.528415 0.000009 0.570948 -0.023332
C45   C     C_R   0.868492 0.435169 0.524189 -0.032596
C46   C     C_R   0.101761 0.565662 0.577490 -0.022049
C47   C     C_R   0.101969 0.434130 0.576314 0.038994
C48   C     C_R   0.868492 0.565253 0.524385 0.054504
C49   C     C_R   0.368305 0.935170 0.524645 -0.031687
C50   C     C_R   0.601871 0.065581 0.577069 -0.022950
C51   C     C_R   0.601962 0.934079 0.576275 0.042077
C52   C     C_R   0.368252 0.065268 0.524986 0.054676
C53   C     C_R   0.829447 0.436160 0.492658 -0.104314
C54   C     C_R   0.156771 0.564883 0.560458 -0.132830
C55   C     C_R   0.156907 0.435066 0.559717 -0.064893
C56   C     C_R   0.829445 0.564057 0.492753 -0.064015
C57   C     C_R   0.329325 0.936164 0.492987 -0.106613
C58   C     C_R   0.656872 0.064801 0.560045 -0.132776
C59   C     C_R   0.656923 0.935027 0.559615 -0.067015
C60   C     C_R   0.329278 0.064071 0.493199 -0.070947
C61   C     C_R   0.813576 0.500097 0.472223 -0.309428
C62   C     C_R   0.182638 0.499991 0.553821 -0.278773
C63   C     C_R   0.313443 0.000110 0.472602 -0.301390
C64   C     C_R   0.682710 0.999935 0.553511 -0.277477
H1    H     H_    0.785659 0.500073 0.445134 0.187736
H2    H     H_    0.224920 0.500030 0.538467 0.199486
H3    H     H_    0.285581 0.000087 0.445403 0.192376
H4    H     H_    0.724997 0.999982 0.538130 0.199263
C65   C     C_R   0.892802 0.500283 0.527789 0.027318
C66   C     C_R   0.077643 0.499955 0.573977 0.035815
C67   C     C_R   0.392567 0.000289 0.528372 0.029180
C68   C     C_R   0.577663 0.999891 0.573825 0.037048
C69   C     C_R   0.069707 0.370583 0.597059 -0.001859
C70   C     C_R   0.880066 0.626530 0.562470 0.018186
C71   C     C_R   0.879751 0.374279 0.562828 -0.072423
C72   C     C_R   0.068818 0.628474 0.601834 -0.075692
C73   C     C_R   0.569644 0.870562 0.597247 -0.002160
C74   C     C_R   0.379865 0.126575 0.562996 0.018045
C75   C     C_R   0.379553 0.874262 0.563264 -0.072888
C76   C     C_R   0.569019 0.128430 0.601310 -0.074350
C77   C     C_R   0.708516 0.247017 0.966225 0.026995
C78   C     C_R   0.270437 0.723188 0.054149 0.072569
C79   C     C_R   0.289160 0.255028 0.032668 0.049231
C80   C     C_R   0.728579 0.726050 0.945660 0.075012
C81   C     C_R   0.208397 0.746664 0.966258 0.027205
C82   C     C_R   0.770626 0.223686 0.054023 0.071792
C83   C     C_R   0.789573 0.748467 0.035554 0.074896
C84   C     C_R   0.226836 0.231005 0.945700 0.074970
C85   C     C_R   0.755929 0.287487 0.942863 -0.365755
C86   C     C_R   0.223034 0.682685 0.077685 -0.356422
C87   C     C_R   0.241215 0.294532 0.057068 -0.394924
C88   C     C_R   0.775913 0.685634 0.922354 -0.347131
C89   C     C_R   0.255756 0.787192 0.943099 -0.365020
C90   C     C_R   0.723154 0.183277 0.077795 -0.356904
C91   C     C_R   0.742699 0.789609 0.057518 -0.300551
C92   C     C_R   0.275264 0.192491 0.919656 -0.361851
H5    H     H_    0.769096 0.326650 0.888950 0.186778
H6    H     H_    0.211819 0.641886 0.129217 0.144407
H7    H     H_    0.227452 0.332893 0.111883 0.154840
H8    H     H_    0.787482 0.645259 0.870301 0.157974
H9    H     H_    0.268887 0.826466 0.889316 0.186718
H10   H     H_    0.711927 0.142551 0.129417 0.145179
H11   H     H_    0.729359 0.828886 0.111289 0.163073
H12   H     H_    0.286967 0.152632 0.866976 0.158588
C93   C     C_R   0.786707 0.277284 0.987354 0.607945
C94   C     C_R   0.191333 0.693750 0.034308 0.644278
C95   C     C_R   0.210346 0.283937 0.012995 0.604556
C96   C     C_R   0.807227 0.696318 0.966458 0.584587
C97   C     C_R   0.286513 0.776901 0.987622 0.605890
C98   C     C_R   0.691404 0.194297 0.034506 0.643788
C99   C     C_R   0.712493 0.779764 0.012068 0.586658
C100  C     C_R   0.307277 0.203985 0.962244 0.631466
C101  C     C_R   0.632124 0.308710 0.957177 0.471116
C102  C     C_R   0.343252 0.655029 0.066598 0.488308
C103  C     C_R   0.367461 0.310305 0.042148 0.470181
C104  C     C_R   0.656511 0.656405 0.932830 0.492531
C105  C     C_R   0.132101 0.808626 0.957180 0.471599
C106  C     C_R   0.843454 0.155457 0.066353 0.487574
C107  C     C_R   0.864751 0.812235 0.045125 0.451209
C108  C     C_R   0.154917 0.159984 0.934281 0.492051
C109  C     C_R   0.612306 0.340600 0.902693 -0.204534
C110  C     C_R   0.376840 0.644090 0.106895 -0.192010
C111  C     C_R   0.388478 0.339950 0.096142 -0.205022
C112  C     C_R   0.622745 0.645053 0.893003 -0.201790
C113  C     C_R   0.112310 0.840583 0.902687 -0.204207
C114  C     C_R   0.876947 0.144295 0.106785 -0.191125
C115  C     C_R   0.886793 0.841406 0.097879 -0.192312
C116  C     C_R   0.121870 0.146662 0.893600 -0.201932
C117  C     C_R   0.633433 0.321504 0.813816 -0.313512
C118  C     C_R   0.365069 0.677067 0.186498 -0.315001
C119  C     C_R   0.367422 0.320444 0.184874 -0.329753
C120  C     C_R   0.633952 0.678565 0.813848 -0.281098
C121  C     C_R   0.133436 0.821496 0.813806 -0.312524
C122  C     C_R   0.865128 0.177157 0.186477 -0.316131
C123  C     C_R   0.867803 0.819571 0.185354 -0.323296
C124  C     C_R   0.133337 0.179251 0.813748 -0.279034
H13   H     H_    0.617962 0.347134 0.773431 0.218492
H14   H     H_    0.388300 0.663738 0.220135 0.207490
H15   H     H_    0.385078 0.342493 0.224006 0.209894
H16   H     H_    0.610794 0.664851 0.780189 0.205300
H17   H     H_    0.118010 0.847199 0.773399 0.217879
H18   H     H_    0.888282 0.163672 0.220200 0.207317
H19   H     H_    0.884347 0.843809 0.224987 0.210194
H20   H     H_    0.110865 0.164104 0.779393 0.205362
C125  C     C_R   0.676311 0.273923 0.774398 -0.144810
C126  C     C_R   0.321414 0.722886 0.226762 -0.166958
C127  C     C_R   0.321244 0.278584 0.226222 -0.134790
C128  C     C_R   0.677315 0.725032 0.773669 -0.104078
C129  C     C_R   0.176262 0.773836 0.774407 -0.144583
C130  C     C_R   0.821510 0.223045 0.226724 -0.168094
C131  C     C_R   0.825182 0.771587 0.224976 -0.159057
C132  C     C_R   0.176268 0.226505 0.773736 -0.103371
C133  C     C_R   0.697566 0.240667 0.827258 -0.096450
C134  C     C_R   0.293505 0.746200 0.179535 -0.090699
C135  C     C_R   0.296423 0.251538 0.175372 -0.117876
C136  C     C_R   0.704838 0.749173 0.821111 -0.065756
C137  C     C_R   0.197449 0.740459 0.827289 -0.096305
C138  C     C_R   0.793697 0.246544 0.179422 -0.087733
C139  C     C_R   0.802801 0.739202 0.173385 -0.111161
C140  C     C_R   0.202891 0.252371 0.821657 -0.072242
C141  C     C_R   0.677222 0.262257 0.917704 0.045194
C142  C     C_R   0.302935 0.708789 0.100631 0.019421
C143  C     C_R   0.319619 0.268902 0.082947 0.040327
C144  C     C_R   0.696036 0.711322 0.899426 0.034891
C145  C     C_R   0.177123 0.762034 0.917735 0.044826
C146  C     C_R   0.803171 0.209265 0.100414 0.019228
C147  C     C_R   0.820580 0.764031 0.084435 0.022396
C148  C     C_R   0.193982 0.215487 0.900504 0.033543
O33   O     O_R   0.062020 0.072840 0.007170 -0.566621
O34   O     O_R   0.937980 0.927160 0.992830 -0.585374
O35   O     O_R   0.937980 0.072840 0.992830 -0.564318
O36   O     O_R   0.062020 0.927160 0.007170 -0.582523
O37   O     O_R   0.562020 0.572840 0.007170 -0.565713
O38   O     O_R   0.437980 0.427160 0.992830 -0.583632
O39   O     O_R   0.437980 0.572840 0.992830 -0.563913
O40   O     O_R   0.562020 0.427160 0.007170 -0.583324
O41   O     O_R   0.947860 0.073950 0.109290 -0.627893
O42   O     O_R   0.052140 0.926050 0.890710 -0.634582
O43   O     O_R   0.052140 0.073950 0.890710 -0.625553
O44   O     O_R   0.947860 0.926050 0.109290 -0.639344
O45   O     O_R   0.447860 0.573950 0.109290 -0.627011
O46   O     O_R   0.552140 0.426050 0.890710 -0.635080
O47   O     O_R   0.552140 0.573950 0.890710 -0.625674
O48   O     O_R   0.447860 0.426050 0.109290 -0.638029
C149  C     C_R   0.076943 0.096128 0.931213 0.934253
C150  C     C_R   0.926459 0.899352 0.065416 0.883796
C151  C     C_R   0.922851 0.095630 0.068858 0.933161
C152  C     C_R   0.073041 0.898873 0.935005 0.891404
C153  C     C_R   0.577156 0.595708 0.931035 0.934695
C154  C     C_R   0.427965 0.397873 0.063990 0.880760
C155  C     C_R   0.422815 0.595561 0.068895 0.935367
C156  C     C_R   0.573030 0.398865 0.935014 0.883789
Zn9   Zn    Zn3+2 0.505960 0.500000 0.080520 1.017763
Zn10  Zn    Zn3+2 0.494040 0.500000 0.919480 1.031868
Zn11  Zn    Zn3+2 0.005960 0.000000 0.080520 1.014856
Zn12  Zn    Zn3+2 0.994040 0.000000 0.919480 1.029053
C157  C     C_2   0.037488 0.234137 0.542673 0.335670
H21   H     H_    0.018280 0.182111 0.566225 0.147902
O49   O     O_2   0.087089 0.236017 0.496019 -0.569277
C158  C     C_2   0.933753 0.766571 0.546830 0.375179
H22   H     H_    0.929545 0.814523 0.586032 0.147992
O50   O     O_2   0.920577 0.769788 0.488258 -0.567359
C159  C     C_2   0.931351 0.234862 0.547206 0.449476
H23   H     H_    0.914116 0.234911 0.502273 0.065813
O51   O     O_2   0.927553 0.180228 0.589979 -0.563709
C160  C     C_2   0.034013 0.766223 0.561036 0.474976
H24   H     H_    0.078289 0.764464 0.524564 0.072413
O52   O     O_2   0.011665 0.823335 0.594240 -0.578172
C161  C     C_2   0.537171 0.734037 0.543454 0.345297
H25   H     H_    0.517900 0.682081 0.567287 0.144939
O53   O     O_2   0.586767 0.735783 0.496700 -0.550989
C162  C     C_2   0.433661 0.266550 0.547039 0.377755
H26   H     H_    0.429304 0.314392 0.586509 0.147517
O54   O     O_2   0.420554 0.269854 0.488388 -0.565790
C163  C     C_2   0.431123 0.734842 0.547748 0.453291
H27   H     H_    0.413934 0.734886 0.502750 0.066400
O55   O     O_2   0.427276 0.680219 0.590567 -0.563520
C164  C     C_2   0.534569 0.266051 0.559376 0.479457
H28   H     H_    0.578835 0.263848 0.523130 0.072906
O56   O     O_2   0.512538 0.323594 0.591314 -0.576904
C165  C     C_2   0.069172 0.318163 0.664455 0.487268
H29   H     H_    0.043909 0.270219 0.683024 0.065388
O57   O     O_2   0.094109 0.330485 0.705094 -0.616268
C166  C     C_2   0.833559 0.664550 0.637917 0.442641
H30   H     H_    0.839473 0.714737 0.664631 0.089300
O58   O     O_2   0.788314 0.636901 0.675688 -0.617932
C167  C     C_2   0.832082 0.338879 0.639643 0.432238
H31   H     H_    0.791154 0.351161 0.652714 0.064395
O59   O     O_2   0.837395 0.300869 0.693521 -0.592016
C168  C     C_2   0.070034 0.677283 0.670907 0.423779
H32   H     H_    0.103990 0.675900 0.684336 0.069583
O60   O     O_2   0.031114 0.715317 0.719137 -0.609619
C169  C     C_2   0.569168 0.818214 0.664667 0.482863
H33   H     H_    0.543820 0.770343 0.683477 0.064757
O61   O     O_2   0.594247 0.830524 0.705072 -0.615477
C170  C     C_2   0.333395 0.164844 0.638278 0.439650
H34   H     H_    0.339391 0.214988 0.665003 0.085564
O62   O     O_2   0.288056 0.137454 0.675960 -0.617760
C171  C     C_2   0.331859 0.838819 0.639976 0.431009
H35   H     H_    0.290951 0.851122 0.652966 0.064532
O63   O     O_2   0.337119 0.800771 0.693876 -0.592336
C172  C     C_2   0.570574 0.177318 0.670000 0.424131
H36   H     H_    0.604170 0.174947 0.684291 0.069879
O64   O     O_2   0.532311 0.216659 0.716962 -0.618037
O65   O     O_3   0.646953 0.151179 0.049814 -0.596647
C173  C     C_3   0.618355 0.124215 0.138707 -0.340653
H37   H     H_    0.611847 0.166389 0.189673 0.176828
H38   H     H_    0.639488 0.076265 0.146326 0.169704
H39   H     H_    0.577446 0.106065 0.151915 0.196374
O66   O     O_3   0.334519 0.814606 0.963060 -0.594008
C174  C     C_3   0.325631 0.889712 0.964731 -0.272012
H40   H     H_    0.286917 0.906687 0.024983 0.174632
H41   H     H_    0.326462 0.907617 0.901706 0.168180
H42   H     H_    0.359485 0.917800 0.968127 0.203798
O67   O     O_3   0.352974 0.162514 0.943936 -0.610973
C175  C     C_3   0.382083 0.139461 0.853234 -0.319303
H43   H     H_    0.386608 0.183195 0.805055 0.175298
H44   H     H_    0.362630 0.090840 0.842900 0.165993
H45   H     H_    0.423818 0.123624 0.838009 0.212124
O68   O     O_3   0.664942 0.818097 0.035890 -0.601136
C176  C     C_3   0.675667 0.892976 0.027846 -0.269790
H46   H     H_    0.713410 0.907073 0.964145 0.187416
H47   H     H_    0.678032 0.913723 0.087147 0.153809
H48   H     H_    0.641184 0.921017 0.026473 0.209045
O69   O     O_3   0.146969 0.650563 0.049300 -0.596228
C177  C     C_3   0.118529 0.622933 0.137875 -0.345552
H49   H     H_    0.111830 0.664768 0.189303 0.177346
H50   H     H_    0.139904 0.575006 0.144919 0.168327
H51   H     H_    0.077705 0.604559 0.150901 0.195132
O70   O     O_3   0.834736 0.314982 0.962567 -0.592133
C178  C     C_3   0.825641 0.390094 0.965222 -0.282968
H52   H     H_    0.787209 0.406711 0.026278 0.172204
H53   H     H_    0.825735 0.408470 0.902929 0.168610
H54   H     H_    0.859773 0.418097 0.967849 0.201316
O71   O     O_3   0.852043 0.653738 0.950330 -0.627962
C179  C     C_3   0.881440 0.629129 0.860348 -0.327825
H55   H     H_    0.887127 0.672209 0.810754 0.175944
H56   H     H_    0.861439 0.580789 0.850687 0.167810
H57   H     H_    0.922722 0.612387 0.846623 0.213110
O72   O     O_3   0.161836 0.320575 0.039122 -0.605336
C180  C     C_3   0.171172 0.395776 0.031551 -0.265749
H58   H     H_    0.207869 0.410972 0.966903 0.190896
H59   H     H_    0.174547 0.416761 0.089837 0.151087
H60   H     H_    0.135547 0.422629 0.032678 0.205902
O73   O     O_3   0.610684 0.326641 0.047266 -0.594284
C181  C     C_3   0.562023 0.287021 0.098359 -0.229827
H61   H     H_    0.565910 0.229319 0.078171 0.179165
H62   H     H_    0.527460 0.311195 0.093307 0.156020
H63   H     H_    0.551596 0.288723 0.170233 0.195502
O74   O     O_3   0.352118 0.617352 0.990206 -0.575512
C182  C     C_3   0.325756 0.549653 0.016554 -0.204170
H64   H     H_    0.280765 0.555752 0.054764 0.126538
H65   H     H_    0.339569 0.517807 0.057206 0.138067
H66   H     H_    0.335841 0.517982 0.955018 0.220940
O75   O     O_3   0.389204 0.328266 0.951974 -0.612165
C183  C     C_3   0.437961 0.289102 0.900722 -0.144492
H67   H     H_    0.436069 0.232769 0.924898 0.171568
H68   H     H_    0.473298 0.316881 0.899547 0.163183
H69   H     H_    0.445625 0.286366 0.830368 0.236490
O76   O     O_3   0.648635 0.617846 0.008133 -0.577856
C184  C     C_3   0.675355 0.550569 0.980020 -0.194142
H70   H     H_    0.720216 0.557281 0.939227 0.130718
H71   H     H_    0.660330 0.518541 0.941200 0.142072
H72   H     H_    0.667005 0.518752 0.040709 0.212254
O77   O     O_3   0.110739 0.826662 0.047222 -0.593565
C185  C     C_3   0.062096 0.787057 0.098467 -0.232285
H73   H     H_    0.066086 0.729250 0.078704 0.179205
H74   H     H_    0.027561 0.810931 0.093063 0.156998
H75   H     H_    0.051561 0.789189 0.170374 0.195479
O78   O     O_3   0.852379 0.117936 0.989826 -0.576439
C186  C     C_3   0.825918 0.050285 0.015946 -0.200218
H76   H     H_    0.780928 0.056487 0.053703 0.127036
H77   H     H_    0.839439 0.018365 0.056942 0.138569
H78   H     H_    0.836220 0.018628 0.954311 0.221203
O79   O     O_3   0.883238 0.834249 0.956993 -0.616942
C187  C     C_3   0.930423 0.794340 0.898876 -0.147723
H79   H     H_    0.930374 0.738058 0.921864 0.170496
H80   H     H_    0.967773 0.821938 0.890087 0.178647
H81   H     H_    0.933097 0.791299 0.831665 0.223608
O80   O     O_3   0.146878 0.122619 0.010444 -0.583356
C188  C     C_3   0.174859 0.056090 0.983656 -0.198775
H82   H     H_    0.219668 0.064149 0.944730 0.136284
H83   H     H_    0.161432 0.022844 0.943530 0.142894
H84   H     H_    0.165951 0.024832 0.044997 0.212572
C189  C     C_2   0.738814 0.181728 0.792527 0.482869
H85   H     H_    0.776719 0.186621 0.729928 0.152459
O81   O     O_2   0.730887 0.126343 0.836141 -0.547031
C190  C     C_2   0.257003 0.810548 0.210795 0.465062
H86   H     H_    0.265024 0.853623 0.246009 0.080810
O82   O     O_2   0.217637 0.816082 0.198952 -0.582207
C191  C     C_2   0.246056 0.206782 0.216240 0.466558
H87   H     H_    0.209119 0.226050 0.274137 0.108898
O83   O     O_2   0.245227 0.148517 0.183412 -0.543755
C192  C     C_2   0.740833 0.814113 0.789740 0.437860
H88   H     H_    0.732981 0.856233 0.753180 0.090500
O84   O     O_2   0.779643 0.821143 0.802817 -0.598580
C193  C     C_2   0.238629 0.681438 0.792553 0.483073
H89   H     H_    0.276567 0.686323 0.730008 0.152467
O85   O     O_2   0.230602 0.625997 0.836102 -0.546415
C194  C     C_2   0.757253 0.310951 0.210729 0.459499
H90   H     H_    0.765246 0.353889 0.246145 0.073820
O86   O     O_2   0.717973 0.316694 0.198690 -0.583550
C195  C     C_2   0.764509 0.676745 0.209680 0.500556
H91   H     H_    0.767505 0.639649 0.256461 0.065366
O87   O     O_2   0.729645 0.665462 0.187999 -0.551131
C196  C     C_2   0.238084 0.318090 0.790016 0.441580
H92   H     H_    0.230150 0.359022 0.752199 0.089304
O88   O     O_2   0.276329 0.327057 0.804144 -0.593877

loop_
_geom_bond_atom_site_label_1
_geom_bond_atom_site_label_2
_geom_bond_distance
_ccdc_geom_bond_type
C28   C161  1.491671 S    
O4    C4    1.251295 A    
O5    C5    1.250283 A    
C86   C94   1.420846 A    
C174  H40   1.115069 S    
O7    Zn7   2.011268 S    
O31   Zn4   2.069125 S    
O8    Zn8   2.011268 S    
C163  O55   1.220221 D    
C106  O78   1.386056 S    
C176  H46   1.114884 S    
C106  C114  1.424988 A    
C172  H36   1.083679 S    
C44   C68   1.407237 A    
C118  H14   1.085205 S    
C162  O54   1.221195 D    
C46   C66   1.408258 A    
C81   C94   1.409581 A    
C75   C171  1.489471 S    
C12   C59   1.463259 S    
C138  C146  1.415601 A    
C138  C194  1.491849 S    
C133  C141  1.411954 A    
O30   C6    1.302670 A    
C2    C126  1.458001 S    
C83   C147  1.495797 S    
C134  C190  1.491804 S    
C6    C130  1.458014 S    
C181  H61   1.112248 S    
C98   O65   1.394676 S    
C136  C144  1.415440 A    
C19   C33   1.408486 A    
C85   C93   1.411612 A    
C110  C155  1.442405 S    
C55   C62   1.381171 A    
O2    C2    1.249649 A    
C140  C148  1.413569 A    
O40   Zn9   1.985642 S    
C33   C35   1.407237 A    
O6    Zn6   2.012100 S    
O37   Zn9   1.983490 S    
C36   C43   1.408184 A    
O42   C152  1.263560 A    
C190  H86   1.085313 S    
C92   C100  1.418566 A    
C101  C141  1.402584 A    
C37   C39   1.407208 A    
C188  H84   1.109179 S    
C114  C122  1.370449 A    
O74   C182  1.413202 S    
C78   C97   1.404945 A    
C105  C145  1.402724 A    
O76   C184  1.413357 S    
C73   C169  1.496413 S    
C10   C57   1.447642 S    
C77   C85   1.405187 A    
O27   C3    1.302997 A    
C187  H81   1.109246 S    
C101  C109  1.421253 A    
C179  H55   1.114288 S    
C4    C128  1.458113 S    
C196  O88   1.220581 D    
O48   Zn9   1.998934 S    
C108  O80   1.385881 S    
C140  C196  1.492634 S    
C7    C131  1.464031 S    
C38   C42   1.412822 A    
O79   C187  1.415059 S    
C8    C132  1.455988 S    
C181  H63   1.109180 S    
C177  H49   1.113946 S    
C20   C73   1.420850 A    
C52   C67   1.399704 A    
O23   Zn7   2.022630 S    
C57   C63   1.369226 A    
C48   C65   1.399568 A    
C175  H43   1.114319 S    
O30   Zn1   2.069206 S    
C23   C31   1.421654 A    
C168  O60   1.220685 D    
C105  C113  1.421346 A    
C195  H91   1.084955 S    
C86   H6    1.080825 S    
C102  C110  1.424945 A    
O32   C8    1.299165 A    
O37   C153  1.223791 A    
O68   C176  1.412133 S    
C123  H19   1.084767 S    
C176  H48   1.109407 S    
C129  C137  1.437657 A    
C124  H20   1.085100 S    
C79   C100  1.411973 A    
O46   Zn10  2.000865 S    
C173  H39   1.109214 S    
C102  O74   1.386035 S    
C50   C58   1.425625 A    
C183  H67   1.113558 S    
C84   C95   1.403421 A    
C107  C147  1.404113 A    
O24   Zn8   2.022630 S    
O9    C9    1.263646 A    
C79   C143  1.497065 S    
C20   C28   1.426188 A    
C103  C111  1.421617 A    
C31   C158  1.489559 S    
C77   C141  1.496575 S    
O12   C12   1.262054 A    
C189  H85   1.080457 S    
O13   C13   1.263700 A    
C81   C145  1.496592 S    
C18   C75   1.418645 A    
C107  C115  1.421600 A    
C25   C164  1.492336 S    
C108  C116  1.423436 A    
O78   C186  1.413219 S    
C47   C69   1.420582 A    
C101  O73   1.385172 S    
O75   C183  1.413299 S    
C85   H5    1.082487 S    
C82   C90   1.404686 A    
C180  H58   1.114714 S    
O7    C7    1.253090 A    
C32   C157  1.491715 S    
C63   H3    1.085706 S    
O9    Zn6   2.113306 S    
C84   C148  1.488401 S    
C33   C43   1.409153 A    
O11   Zn8   2.114868 S    
C159  H23   1.085534 S    
C162  H26   1.082439 S    
C173  H38   1.110997 S    
C135  C143  1.413028 A    
C186  H76   1.108846 S    
O16   Zn3   2.114868 S    
C122  H18   1.085197 S    
C74   C170  1.488276 S    
C186  H78   1.109224 S    
C18   C36   1.407811 A    
O22   Zn6   2.020804 S    
C47   C66   1.408559 A    
C22   C30   1.419031 A    
C161  H25   1.081207 S    
C34   C36   1.405545 A    
C179  H57   1.109376 S    
C22   C40   1.407768 A    
C174  H41   1.110795 S    
O18   C10   1.295423 A    
C165  H29   1.082834 S    
C38   C40   1.405448 A    
C35   C44   1.413354 A    
C80   C88   1.404250 A    
C52   C74   1.421352 A    
C192  H88   1.085328 S    
C70   C166  1.487755 S    
O2    Zn2   2.012100 S    
C19   C27   1.421692 A    
C45   C53   1.436288 A    
C93   O70   1.388440 S    
C175  H45   1.109366 S    
C94   O69   1.394791 S    
C166  H30   1.082814 S    
C47   C55   1.426269 A    
O6    C6    1.249773 A    
C87   C95   1.408811 A    
C104  O76   1.386014 S    
C109  C117  1.373108 A    
C132  C140  1.430438 A    
O46   C156  1.263501 A    
C157  H21   1.081194 S    
O34   C150  1.225734 A    
C119  H15   1.084867 S    
C183  H69   1.108143 S    
C103  C143  1.400965 A    
C117  H13   1.084814 S    
O80   C188  1.413250 S    
O20   C12   1.289457 A    
C82   C93   1.405012 A    
O21   C13   1.289564 A    
C184  H71   1.112334 S    
O23   C15   1.295323 A    
C5    C129  1.460762 S    
O24   C16   1.289436 A    
O17   Zn1   2.020804 S    
C50   C68   1.407990 A    
C115  C150  1.447718 S    
C136  C192  1.491907 S    
C50   C76   1.417098 A    
C51   C68   1.408476 A    
C30   C159  1.490201 S    
C108  C148  1.404954 A    
C185  H74   1.109919 S    
O3    C3    1.246987 A    
C15   C56   1.446235 S    
C180  H60   1.109315 S    
C187  H80   1.108951 S    
O44   C150  1.264639 A    
C139  C195  1.492118 S    
C17   C76   1.425224 A    
C3    C127  1.462528 S    
C80   C99   1.404579 A    
C19   C74   1.418586 A    
C178  H53   1.111016 S    
C112  C120  1.371537 A    
C185  H75   1.109178 S    
C115  C123  1.372767 A    
C116  C124  1.372434 A    
C160  H24   1.085586 S    
C97   O66   1.388632 S    
O45   Zn9   2.000864 S    
C24   C38   1.413352 A    
C126  C134  1.435140 A    
C34   C44   1.412728 A    
C39   C42   1.413207 A    
C167  H31   1.082977 S    
O8    C8    1.253149 A    
O41   C151  1.264207 A    
C41   C65   1.412218 A    
C172  O64   1.219548 D    
C95   O72   1.387215 S    
C17   C35   1.413903 A    
C164  H28   1.085581 S    
C22   C71   1.418545 A    
C21   C39   1.413953 A    
C76   C172  1.495501 S    
C158  H22   1.082321 S    
C169  O61   1.221288 D    
C182  H66   1.109219 S    
C193  O85   1.221015 D    
O12   Zn7   2.114868 S    
C87   H7    1.082728 S    
O13   Zn2   2.113306 S    
C170  H34   1.083046 S    
C194  H90   1.085320 S    
C181  H62   1.109856 S    
C51   C59   1.426542 A    
O25   C1    1.302066 A    
C48   C56   1.437692 A    
O10   C10   1.245247 A    
O44   Zn11  1.998934 S    
C137  C145  1.411935 A    
C111  C154  1.444450 S    
C190  O82   1.220649 D    
O14   C14   1.245207 A    
C188  H83   1.112601 S    
C83   C91   1.405259 A    
C45   C65   1.401918 A    
C84   C92   1.402944 A    
C81   C89   1.405133 A    
C191  H87   1.084444 S    
C134  C142  1.415614 A    
C179  H56   1.110961 S    
O66   C174  1.412147 S    
O10   Zn5   2.113306 S    
C49   C75   1.416830 A    
O19   C11   1.295283 A    
C25   C27   1.425104 A    
C177  H50   1.111017 S    
C171  H35   1.082949 S    
C51   C73   1.420703 A    
O34   Zn12  1.983490 S    
C111  C119  1.372631 A    
C83   C96   1.411516 A    
C27   C162  1.489288 S    
C120  H16   1.085216 S    
C175  H44   1.110890 S    
C59   C64   1.381019 A    
C121  H17   1.084813 S    
O71   C179  1.413297 S    
C56   C61   1.369885 A    
O41   Zn11  2.000864 S    
O38   Zn10  1.983490 S    
O39   Zn10  1.985640 S    
O33   C149  1.224851 A    
C72   C168  1.495906 S    
C102  C142  1.404074 A    
C71   C167  1.489555 S    
C103  O75   1.385286 S    
C176  H47   1.110818 S    
C177  H51   1.109209 S    
C106  C146  1.404163 A    
C45   C71   1.416896 A    
C100  O67   1.394830 S    
C11   C60   1.446143 S    
C183  H68   1.108888 S    
C139  C147  1.417631 A    
O67   C175  1.413688 S    
O3    Zn3   2.011268 S    
O27   Zn8   2.069125 S    
C60   C63   1.369940 A    
C112  C153  1.443130 S    
C182  H64   1.108896 S    
O32   Zn3   2.069125 S    
O65   C173  1.411489 S    
O47   Zn10  1.998933 S    
C107  O79   1.385837 S    
C90   H10   1.080875 S    
C110  C118  1.370400 A    
C37   C41   1.409239 A    
C118  C126  1.369237 A    
C21   C72   1.425133 A    
O15   Zn4   2.114868 S    
O25   Zn6   2.069206 S    
C122  C130  1.369325 A    
O22   C14   1.295436 A    
C80   C144  1.492571 S    
C43   C67   1.412136 A    
C53   C61   1.369303 A    
O38   C154  1.226469 A    
C64   H4    1.083934 S    
C130  C138  1.435031 A    
C194  O86   1.220649 D    
O70   C178  1.412213 S    
C79   C87   1.405955 A    
C99   O68   1.387424 S    
C17   C25   1.425155 A    
C186  H77   1.112690 S    
C88   H8    1.080984 S    
C89   H9    1.082455 S    
C137  C193  1.489199 S    
C78   C142  1.494031 S    
C196  H92   1.085398 S    
O42   Zn12  2.000865 S    
C92   H12   1.081238 S    
C171  O63   1.220817 D    
C167  O59   1.220821 D    
C133  C189  1.489229 S    
C82   C146  1.493949 S    
C91   C99   1.410292 A    
C113  C152  1.447515 S    
C48   C70   1.421123 A    
O73   C181  1.414112 S    
C192  O84   1.220656 D    
O36   C152  1.226989 A    
C29   C160  1.492053 S    
O28   C4    1.301571 A    
C166  O58   1.221092 D    
O69   C177  1.411412 S    
O29   C5    1.302011 A    
C168  H32   1.083579 S    
C1    C125  1.460803 S    
O47   C153  1.263142 A    
C26   C28   1.423225 A    
C178  H52   1.115248 S    
C16   C55   1.463770 S    
O15   C15   1.243653 A    
O16   C16   1.262334 A    
O33   Zn11  1.983490 S    
O1    C1    1.250219 A    
C184  H70   1.108990 S    
O35   Zn12  1.985640 S    
O4    Zn4   2.011268 S    
O39   C155  1.222154 A    
O18   Zn2   2.020804 S    
C42   C66   1.407163 A    
O5    Zn5   2.012100 S    
C131  C139  1.435918 A    
O48   C154  1.263868 A    
C189  O81   1.221023 D    
C123  C131  1.373915 A    
C173  H37   1.113976 S    
C124  C132  1.371158 A    
O14   Zn1   2.113306 S    
C113  C121  1.373128 A    
C90   C98   1.420690 A    
C77   C98   1.409576 A    
C46   C72   1.417783 A    
C20   C34   1.413443 A    
C29   C31   1.424937 A    
C187  H79   1.113521 S    
C46   C54   1.425803 A    
C23   C70   1.418275 A    
C18   C26   1.419076 A    
C191  O83   1.221043 D    
O11   C11   1.243615 A    
C105  O77   1.385155 S    
O35   C151  1.222204 A    
C13   C54   1.464272 S    
O28   Zn7   2.069125 S    
O26   C2    1.302762 A    
O29   Zn2   2.069206 S    
C61   H1    1.085716 S    
C160  O52   1.219936 D    
C161  O53   1.221163 D    
C88   C96   1.420400 A    
C174  H42   1.109290 S    
C89   C97   1.411779 A    
C116  C149  1.444806 S    
C165  O57   1.221283 D    
C135  C191  1.486328 S    
C114  C151  1.442617 S    
C180  H59   1.110723 S    
C49   C57   1.436215 A    
C164  O56   1.219908 D    
C195  O87   1.220531 D    
C109  C156  1.447290 S    
O45   C155  1.264110 A    
C158  O50   1.221206 D    
C169  H33   1.082825 S    
C69   C165  1.496353 S    
O43   C149  1.263212 A    
C182  H65   1.112660 S    
C104  C112  1.423967 A    
C193  H89   1.080483 S    
C170  O62   1.221142 D    
C157  O49   1.221181 D    
C163  H27   1.085535 S    
C104  C144  1.404465 A    
O26   Zn5   2.069206 S    
O36   Zn11  1.985642 S    
C52   C60   1.437706 A    
C23   C37   1.408313 A    
C184  H72   1.109190 S    
C21   C29   1.425160 A    
C24   C69   1.420580 A    
C127  C135  1.439378 A    
O43   Zn12  1.998933 S    
C125  C133  1.437747 A    
C40   C41   1.408021 A    
C188  H82   1.109011 S    
C49   C67   1.401904 A    
C119  C127  1.373069 A    
O72   C180  1.412104 S    
C117  C125  1.374886 A    
O20   Zn4   2.022630 S    
C96   O71   1.395002 S    
O21   Zn5   2.020804 S    
C185  H73   1.112117 S    
C14   C53   1.447541 S    
C120  C128  1.369889 A    
C58   C64   1.380765 A    
C121  C129  1.374891 A    
C91   H11   1.082686 S    
O40   C156  1.226986 A    
O31   C7    1.300281 A    
C62   H2    1.083916 S    
C24   C32   1.426112 A    
O17   C9    1.289385 A    
O19   Zn3   2.022630 S    
C26   C163  1.490237 S    
C128  C136  1.433780 A    
C178  H54   1.109351 S    
C9    C58   1.464175 S    
C30   C32   1.423150 A    
C159  O51   1.220223 D    
O77   C185  1.414027 S    
O1    Zn1   2.012100 S    
C78   C86   1.404743 A    
C54   C62   1.381286 A    
