data_mof_unit_1935.cif
_audit_creation_date              2013-03-05T15:50:20-0500
_audit_creation_method            fapswitch 2.2
_symmetry_space_group_name_H-M    P1
_symmetry_Int_Tables_number       1
_space_group_crystal_system       triclinic
_cell_length_a                    18.470643
_cell_length_b                    25.814698
_cell_length_c                    18.239096
_cell_angle_alpha                 90.13157
_cell_angle_beta                  90.352116
_cell_angle_gamma                 90.078865
_cell_volume                      8696.46204818

loop_
_atom_site_label
_atom_site_type_symbol
_atom_site_description
_atom_site_fract_x
_atom_site_fract_y
_atom_site_fract_z
_atom_type_partial_charge
Zn1   Zn    Zn3+2 0.249990 0.293780 0.913250 1.048401
Zn2   Zn    Zn3+2 0.249990 0.706220 0.086750 1.101244
Zn3   Zn    Zn3+2 0.249990 0.706220 0.913250 1.096635
Zn4   Zn    Zn3+2 0.249990 0.293780 0.086750 1.095938
Zn5   Zn    Zn3+2 0.749990 0.793780 0.413250 1.040960
Zn6   Zn    Zn3+2 0.749990 0.206220 0.586750 1.035636
Zn7   Zn    Zn3+2 0.749990 0.206220 0.413250 1.054603
Zn8   Zn    Zn3+2 0.749990 0.793780 0.586750 1.081656
Zn9   Zn    Zn3+2 0.336760 0.206240 0.000000 1.161963
Zn10  Zn    Zn3+2 0.336760 0.793760 0.000000 1.127162
Zn11  Zn    Zn3+2 0.836760 0.706240 0.500000 1.137986
Zn12  Zn    Zn3+2 0.836760 0.293760 0.500000 1.157114
Zn13  Zn    Zn3+2 0.163250 0.206230 0.000000 1.006614
Zn14  Zn    Zn3+2 0.163250 0.793770 0.000000 1.006528
Zn15  Zn    Zn3+2 0.663250 0.706230 0.500000 0.991635
Zn16  Zn    Zn3+2 0.663250 0.293770 0.500000 0.979513
O1    O     O_3   0.249990 0.250010 0.000000 -0.519750
O2    O     O_3   0.249990 0.749990 0.000000 -0.518550
O3    O     O_3   0.749990 0.750010 0.500000 -0.522721
O4    O     O_3   0.749990 0.249990 0.500000 -0.521810
O5    O     O_R   0.335430 0.280650 0.146160 -0.578219
O6    O     O_R   0.335430 0.719350 0.853840 -0.563521
O7    O     O_R   0.335430 0.719350 0.146160 -0.556749
O8    O     O_R   0.335430 0.280650 0.853840 -0.621927
O9    O     O_R   0.835430 0.780650 0.646160 -0.590612
O10   O     O_R   0.835430 0.219350 0.353840 -0.625049
O11   O     O_R   0.835430 0.219350 0.646160 -0.621052
O12   O     O_R   0.835430 0.780650 0.353840 -0.628578
O13   O     O_R   0.164550 0.280640 0.853840 -0.648067
O14   O     O_R   0.164550 0.719360 0.146160 -0.624808
O15   O     O_R   0.164550 0.719360 0.853840 -0.598449
O16   O     O_R   0.164550 0.280640 0.146160 -0.645497
O17   O     O_R   0.664550 0.780640 0.353840 -0.646343
O18   O     O_R   0.664550 0.219360 0.646160 -0.654927
O19   O     O_R   0.664550 0.219360 0.353840 -0.637255
O20   O     O_R   0.664550 0.780640 0.646160 -0.622692
O21   O     O_R   0.396160 0.219380 0.914560 -0.576724
O22   O     O_R   0.396160 0.780620 0.085440 -0.593134
O23   O     O_R   0.396160 0.780620 0.914560 -0.618186
O24   O     O_R   0.396160 0.219380 0.085440 -0.579470
O25   O     O_R   0.896160 0.719380 0.414560 -0.626488
O26   O     O_R   0.896160 0.280620 0.585440 -0.560609
O27   O     O_R   0.896160 0.280620 0.414560 -0.594215
O28   O     O_R   0.896160 0.719380 0.585440 -0.556922
O29   O     O_R   0.103840 0.219370 0.085450 -0.645389
O30   O     O_R   0.103840 0.780630 0.914550 -0.668537
O31   O     O_R   0.103840 0.780630 0.085450 -0.640434
O32   O     O_R   0.103840 0.219370 0.914550 -0.644485
O33   O     O_R   0.603840 0.719370 0.585450 -0.635310
O34   O     O_R   0.603840 0.280630 0.414550 -0.638129
O35   O     O_R   0.603840 0.280630 0.585450 -0.634809
O36   O     O_R   0.603840 0.719370 0.414550 -0.626444
O37   O     O_R   0.310730 0.133160 0.000000 -0.572524
O38   O     O_R   0.310730 0.866840 0.000000 -0.611545
O39   O     O_R   0.810730 0.633160 0.500000 -0.586381
O40   O     O_R   0.810730 0.366840 0.500000 -0.561541
O41   O     O_R   0.249970 0.366860 0.060720 -0.609183
O42   O     O_R   0.249970 0.633140 0.939280 -0.633285
O43   O     O_R   0.249970 0.633140 0.060720 -0.630003
O44   O     O_R   0.249970 0.366860 0.939280 -0.634579
O45   O     O_R   0.749970 0.866860 0.560720 -0.617919
O46   O     O_R   0.749970 0.133140 0.439280 -0.604462
O47   O     O_R   0.749970 0.133140 0.560720 -0.632886
O48   O     O_R   0.749970 0.866860 0.439280 -0.605865
O49   O     O_R   0.189290 0.133150 0.000000 -0.654223
O50   O     O_R   0.189290 0.866850 0.000000 -0.643611
O51   O     O_R   0.689290 0.633150 0.500000 -0.658025
O52   O     O_R   0.689290 0.366850 0.500000 -0.657267
C1    C     C_R   0.390399 0.251397 0.139635 0.947995
C2    C     C_R   0.388853 0.750478 0.858865 0.931852
C3    C     C_R   0.390323 0.748674 0.139656 0.928581
C4    C     C_R   0.389511 0.249658 0.859490 0.936930
C5    C     C_R   0.890390 0.751157 0.639405 0.963797
C6    C     C_R   0.890832 0.249463 0.360254 0.907357
C7    C     C_R   0.888689 0.251012 0.640776 0.916782
C8    C     C_R   0.893445 0.753791 0.363199 0.870742
C9    C     C_R   0.110800 0.249681 0.859313 0.784041
C10   C     C_R   0.106745 0.746540 0.137070 0.841256
C11   C     C_R   0.110332 0.749559 0.860134 0.783830
C12   C     C_R   0.110236 0.250040 0.139999 0.819471
C13   C     C_R   0.610356 0.750425 0.360227 0.758736
C14   C     C_R   0.610964 0.250462 0.640545 0.784005
C15   C     C_R   0.610504 0.249662 0.360115 0.753970
C16   C     C_R   0.610215 0.750252 0.639919 0.781002
C17   C     C_R   0.249584 0.109417 0.001606 0.836488
C18   C     C_R   0.250073 0.890476 0.001757 0.837693
C19   C     C_R   0.749827 0.609452 0.500505 0.819886
C20   C     C_R   0.750010 0.390515 0.499629 0.789640
C21   C     C_R   0.249972 0.391410 0.000133 0.828025
C22   C     C_R   0.250035 0.608583 0.000025 0.820684
C23   C     C_R   0.749550 0.891444 0.500149 0.822417
C24   C     C_R   0.749312 0.108623 0.500040 0.802441
C25   C     C_3   0.254524 0.470424 0.080069 -0.349191
C26   C     C_3   0.179748 0.529840 0.963996 -0.410139
C27   C     C_3   0.254381 0.529882 0.079998 -0.359521
C28   C     C_3   0.179655 0.469915 0.964223 -0.387945
C29   C     C_3   0.737797 0.970484 0.579462 -0.369233
C30   C     C_3   0.686130 0.029831 0.451761 -0.383628
C31   C     C_3   0.738522 0.029982 0.579473 -0.377252
C32   C     C_3   0.686601 0.969935 0.451412 -0.392939
H1    H     H_    0.207733 0.456216 0.112592 0.193243
H2    H     H_    0.131624 0.544388 0.994113 0.165568
H3    H     H_    0.207383 0.544012 0.112307 0.183988
H4    H     H_    0.131588 0.455571 0.994620 0.172887
H5    H     H_    0.685261 0.956445 0.601544 0.173891
H6    H     H_    0.633271 0.044030 0.472740 0.160236
H7    H     H_    0.686755 0.044565 0.602638 0.180590
H8    H     H_    0.633671 0.955164 0.471462 0.158878
H9    H     H_    0.192157 0.904459 0.127199 0.220853
H10   H     H_    0.186990 0.095670 0.124411 0.212246
H11   H     H_    0.792390 0.404491 0.369219 0.183872
H12   H     H_    0.792384 0.595862 0.370303 0.168914
H13   H     H_    0.367163 0.455672 0.981991 0.233349
H14   H     H_    0.314452 0.544069 0.899660 0.207393
H15   H     H_    0.367210 0.544092 0.982481 0.237350
H16   H     H_    0.313929 0.455722 0.899518 0.206517
H17   H     H_    0.867523 0.956543 0.506060 0.231124
H18   H     H_    0.829975 0.044145 0.413426 0.245871
H19   H     H_    0.867304 0.045155 0.504446 0.217544
H20   H     H_    0.831524 0.955990 0.414884 0.253375
C33   C     C_3   0.315885 0.470010 0.957117 -0.361846
C34   C     C_3   0.316012 0.529845 0.957204 -0.346054
C35   C     C_3   0.821918 0.970413 0.471272 -0.318483
C36   C     C_3   0.821528 0.030229 0.470455 -0.342547
C37   C     C_3   0.250025 0.449124 0.000424 0.120658
C38   C     C_3   0.250069 0.550857 0.000274 0.132142
C39   C     C_3   0.749005 0.949226 0.500571 0.118796
C40   C     C_3   0.748811 0.050963 0.500383 0.120165
C41   C     C_R   0.141831 0.225134 0.707810 -0.152250
C42   C     C_R   0.097324 0.667251 0.257567 -0.154033
C43   C     C_R   0.024306 0.659658 0.832619 -0.228741
C44   C     C_R   0.144351 0.268511 0.296018 -0.104256
C45   C     C_R   0.493081 0.821283 0.369818 -0.218227
C46   C     C_R   0.644361 0.275306 0.790961 -0.182173
C47   C     C_R   0.505525 0.169576 0.356471 -0.231219
C48   C     C_R   0.493786 0.822322 0.633313 -0.230746
C49   C     C_R   0.156293 0.207260 0.637634 -0.193467
C50   C     C_R   0.110773 0.642237 0.323647 -0.209603
C51   C     C_R   0.979529 0.616910 0.825235 -0.239700
C52   C     C_R   0.158439 0.293270 0.362315 -0.198268
C53   C     C_R   0.436099 0.855479 0.377688 -0.236116
C54   C     C_R   0.660990 0.292069 0.861248 -0.236033
C55   C     C_R   0.455961 0.129501 0.356620 -0.264205
C56   C     C_R   0.433967 0.853738 0.622551 -0.245825
C57   C     C_R   0.379141 0.855951 0.327340 0.291211
C58   C     C_R   0.606392 0.302228 0.911226 0.297537
C59   C     C_R   0.400318 0.127753 0.305097 0.299704
C60   C     C_R   0.371613 0.846782 0.664000 0.286508
C61   C     C_R   0.100252 0.194356 0.589577 0.271002
C62   C     C_R   0.085337 0.662985 0.389320 0.268456
C63   C     C_R   0.916539 0.619790 0.783354 0.312816
C64   C     C_R   0.102940 0.319615 0.398033 0.258944
C65   C     C_R   0.380374 0.821702 0.266542 0.223667
C66   C     C_R   0.533576 0.293587 0.891033 0.209570
C67   C     C_R   0.394377 0.167286 0.251736 0.221230
C68   C     C_R   0.371585 0.809700 0.721114 0.198050
C69   C     C_R   0.027990 0.202906 0.611117 0.212976
C70   C     C_R   0.041692 0.707995 0.387543 0.225332
C71   C     C_R   0.900627 0.665943 0.744900 0.234962
C72   C     C_R   0.030792 0.314135 0.372281 0.227913
C73   C     C_R   0.439071 0.785551 0.257665 -0.079323
C74   C     C_R   0.516364 0.270065 0.821752 -0.072709
C75   C     C_R   0.445831 0.209443 0.250365 -0.091291
C76   C     C_R   0.436125 0.780978 0.738255 -0.081116
C77   C     C_R   0.013466 0.228988 0.679072 -0.058021
C78   C     C_R   0.016512 0.726919 0.318611 -0.043792
C79   C     C_R   0.951689 0.708024 0.744106 -0.068952
C80   C     C_R   0.015638 0.276569 0.316190 -0.023852
C81   C     C_R   0.070403 0.235221 0.730306 0.034973
C82   C     C_R   0.054173 0.712271 0.254856 0.066519
C83   C     C_R   0.011261 0.705707 0.792751 0.063052
C84   C     C_R   0.072781 0.264277 0.269204 0.045255
C85   C     C_R   0.495543 0.785917 0.310769 0.067929
C86   C     C_R   0.572286 0.264790 0.769533 0.036011
C87   C     C_R   0.502008 0.209509 0.303746 0.071143
C88   C     C_R   0.495239 0.784823 0.689518 0.073983
C89   C     C_R   0.442802 0.748003 0.199800 -0.133895
C90   C     C_R   0.446590 0.249704 0.803933 -0.121565
C91   C     C_R   0.443132 0.251805 0.199461 -0.138757
C92   C     C_R   0.443877 0.748745 0.801641 -0.148793
C93   C     C_R   0.945354 0.251437 0.695977 -0.122073
C94   C     C_R   0.955865 0.760500 0.312002 -0.078621
C95   C     C_R   0.945026 0.752084 0.697054 -0.121739
C96   C     C_R   0.949247 0.248059 0.305626 -0.094143
C97   C     C_R   0.497947 0.709309 0.199400 -0.045561
C98   C     C_R   0.433432 0.226156 0.734199 -0.033015
C99   C     C_R   0.493261 0.294183 0.204617 -0.033905
C100  C     C_R   0.504595 0.714822 0.809790 -0.049886
C101  C     C_R   0.934218 0.278164 0.763329 -0.046260
C102  C     C_R   0.947666 0.790735 0.247231 -0.023035
C103  C     C_R   0.992529 0.795852 0.703802 -0.056919
C104  C     C_R   0.940599 0.217934 0.240154 -0.023860
C105  C     C_R   0.985806 0.271597 0.820059 0.069126
C106  C     C_R   0.985424 0.775347 0.183633 0.063057
C107  C     C_R   0.047306 0.794266 0.758583 0.042640
C108  C     C_R   0.984554 0.231094 0.180853 0.050201
C109  C     C_R   0.558435 0.715927 0.245792 0.043335
C110  C     C_R   0.485012 0.232486 0.678098 0.056958
C111  C     C_R   0.553788 0.288880 0.251531 0.039900
C112  C     C_R   0.558125 0.714615 0.754305 0.034217
C113  C     C_R   0.054481 0.251117 0.802813 -0.081833
C114  C     C_R   0.045791 0.741910 0.190084 -0.137354
C115  C     C_R   0.055697 0.749669 0.802388 -0.059779
C116  C     C_R   0.055260 0.249068 0.196816 -0.099092
C117  C     C_R   0.554561 0.751597 0.303810 -0.060230
C118  C     C_R   0.555050 0.250013 0.696725 -0.085185
C119  C     C_R   0.555011 0.248841 0.303423 -0.059609
C120  C     C_R   0.554195 0.750504 0.696262 -0.075547
C121  C     C_R   0.495661 0.663849 0.154421 0.356211
C122  C     C_R   0.372196 0.194073 0.719064 0.311830
C123  C     C_R   0.487337 0.341508 0.163664 0.361420
C124  C     C_R   0.513842 0.679782 0.870212 0.327850
C125  C     C_R   0.874268 0.311982 0.776345 0.293837
C126  C     C_R   0.902842 0.835703 0.242379 0.366495
C127  C     C_R   0.987929 0.841903 0.659317 0.336714
C128  C     C_R   0.889109 0.177382 0.228472 0.345965
C129  C     C_R   0.559283 0.635607 0.142192 -0.145207
C130  C     C_R   0.356715 0.178491 0.647047 -0.176557
C131  C     C_R   0.546850 0.375000 0.158543 -0.084999
C132  C     C_R   0.573024 0.646202 0.873003 -0.172327
C133  C     C_R   0.860034 0.329117 0.847753 -0.146914
C134  C     C_R   0.881198 0.853848 0.173166 -0.179322
C135  C     C_R   0.036072 0.883079 0.670631 -0.112120
C136  C     C_R   0.863902 0.167915 0.156853 -0.181309
C137  C     C_R   0.905988 0.316350 0.905289 -0.187099
C138  C     C_R   0.907292 0.830873 0.109816 -0.191993
C139  C     C_R   0.088831 0.880741 0.724363 -0.127706
C140  C     C_R   0.895168 0.193412 0.097806 -0.177474
C141  C     C_R   0.622215 0.647394 0.180625 -0.180475
C142  C     C_R   0.402514 0.191628 0.590269 -0.176754
C143  C     C_R   0.609525 0.365681 0.198259 -0.116357
C144  C     C_R   0.623213 0.645354 0.817156 -0.172440
C145  C     C_R   0.969583 0.289521 0.891490 -0.180051
C146  C     C_R   0.960131 0.792784 0.114706 -0.111078
C147  C     C_R   0.094613 0.837109 0.767805 -0.078835
C148  C     C_R   0.957130 0.223272 0.109088 -0.117269
C149  C     C_R   0.621123 0.685529 0.234434 -0.153683
C150  C     C_R   0.467327 0.216687 0.605638 -0.164538
C151  C     C_R   0.612245 0.324251 0.246384 -0.139779
C152  C     C_R   0.615735 0.678639 0.758115 -0.110116
H21   H     H_    0.187697 0.232712 0.743014 0.207560
H22   H     H_    0.117758 0.649127 0.208423 0.176656
H23   H     H_    0.069412 0.655634 0.870124 0.155056
H24   H     H_    0.189652 0.252275 0.266906 0.224050
H25   H     H_    0.535322 0.822927 0.411160 0.137492
H26   H     H_    0.689270 0.269427 0.754507 0.208713
H27   H     H_    0.547125 0.168512 0.398471 0.143157
H28   H     H_    0.538997 0.827813 0.596651 0.136582
H29   H     H_    0.211747 0.202392 0.620949 0.187471
H30   H     H_    0.142857 0.607147 0.323877 0.205373
H31   H     H_    0.991909 0.582206 0.856124 0.194090
H32   H     H_    0.213805 0.296523 0.381720 0.199330
H33   H     H_    0.436002 0.881395 0.424472 0.193184
H34   H     H_    0.716947 0.297867 0.876739 0.187122
H35   H     H_    0.460634 0.099702 0.398096 0.194790
H36   H     H_    0.434965 0.881821 0.578539 0.194597
H37   H     H_    0.815321 0.355137 0.858149 0.199945
H38   H     H_    0.845429 0.886850 0.168115 0.192661
H39   H     H_    0.032099 0.917642 0.637260 0.194214
H40   H     H_    0.822491 0.139085 0.146308 0.190844
H41   H     H_    0.558692 0.601850 0.106829 0.184548
H42   H     H_    0.311969 0.152540 0.635695 0.194683
H43   H     H_    0.542971 0.410280 0.126733 0.181190
H44   H     H_    0.579510 0.619914 0.918795 0.179462
H45   H     H_    0.006466 0.284384 0.937102 0.134047
H46   H     H_    0.979170 0.775970 0.064016 0.159909
H47   H     H_    0.137232 0.837515 0.808535 0.190025
H48   H     H_    0.982586 0.240151 0.061594 0.150434
H49   H     H_    0.669929 0.691152 0.266658 0.139884
H50   H     H_    0.504016 0.221630 0.560298 0.150496
H51   H     H_    0.661009 0.319975 0.279032 0.140360
H52   H     H_    0.655667 0.675717 0.715293 0.185209
C153  C     C_R   0.283911 0.052577 0.872430 -0.079004
C154  C     C_R   0.303226 0.946330 0.878356 -0.151338
C155  C     C_R   0.695017 0.553373 0.624045 -0.068536
C156  C     C_R   0.700215 0.445779 0.625251 -0.076646
C157  C     C_R   0.309095 0.026144 0.810982 -0.041855
C158  C     C_R   0.320308 0.973076 0.814532 -0.132599
C159  C     C_R   0.670881 0.526158 0.685086 -0.077960
C160  C     C_R   0.673976 0.472457 0.685921 -0.079209
C161  C     C_R   0.275615 0.972596 0.940592 0.057500
C162  C     C_R   0.270091 0.026631 0.938738 0.018220
C163  C     C_R   0.724173 0.472614 0.562105 0.049530
C164  C     C_R   0.722625 0.527029 0.561875 0.058713
C165  C     C_R   0.250140 0.946109 0.002853 -0.098096
C166  C     C_R   0.247436 0.053547 0.001785 -0.097085
C167  C     C_R   0.749636 0.446216 0.499501 -0.076856
C168  C     C_R   0.748954 0.553718 0.499888 -0.087513
C169  C     C_R   0.219629 0.972737 0.063242 0.013086
C170  C     C_R   0.219209 0.027112 0.063124 0.025137
C171  C     C_R   0.772095 0.472901 0.435980 0.022035
C172  C     C_R   0.772552 0.527225 0.436483 0.027321
C173  C     C_R   0.190130 0.946235 0.124031 -0.202518
C174  C     C_R   0.188453 0.053840 0.123206 -0.191941
C175  C     C_R   0.792462 0.446368 0.371315 -0.232618
C176  C     C_R   0.793748 0.554005 0.372429 -0.271594
C177  C     C_R   0.157658 0.972830 0.182313 0.242430
C178  C     C_R   0.154901 0.027413 0.180843 0.253451
C179  C     C_R   0.813753 0.473042 0.308133 0.277155
C180  C     C_R   0.813537 0.527627 0.308436 0.257217
H53   H     H_    0.272490 0.093175 0.867639 0.206124
H54   H     H_    0.311197 0.905057 0.877829 0.189913
H55   H     H_    0.691144 0.595076 0.626260 0.166360
H56   H     H_    0.701070 0.404015 0.628405 0.183108
H57   H     H_    0.319640 0.046805 0.760579 0.195048
H58   H     H_    0.340659 0.952376 0.767310 0.184836
H59   H     H_    0.649707 0.546798 0.731923 0.151496
H60   H     H_    0.655579 0.451339 0.733537 0.170080
H61   H     H_    0.304798 0.456435 0.107448 0.244360
H62   H     H_    0.175259 0.543959 0.906533 0.195564
H63   H     H_    0.304475 0.544242 0.107574 0.243032
H64   H     H_    0.174925 0.455427 0.906870 0.199312
H65   H     H_    0.781314 0.956352 0.616733 0.233278
H66   H     H_    0.691727 0.044140 0.394553 0.215096
H67   H     H_    0.783233 0.043911 0.615736 0.211690
H68   H     H_    0.693200 0.955857 0.394119 0.217391
N1    N     N_R   0.428506 0.639040 0.135920 0.195880
O53   O     O_R   0.383465 0.628430 0.188420 -0.370300
O54   O     O_R   0.422816 0.613237 0.074897 -0.392607
N2    N     N_R   0.336303 0.167140 0.776550 0.141612
O55   O     O_R   0.375637 0.140095 0.821769 -0.430675
O56   O     O_R   0.267364 0.157531 0.771226 -0.501790
N3    N     N_R   0.419176 0.361907 0.140012 0.189192
O57   O     O_R   0.413830 0.383063 0.075581 -0.390553
O58   O     O_R   0.371901 0.374351 0.189643 -0.383462
N4    N     N_R   0.463929 0.676362 0.929262 0.171986
O59   O     O_R   0.477944 0.700733 0.990183 -0.418914
O60   O     O_R   0.414845 0.640224 0.928102 -0.400063
N5    N     N_R   0.836029 0.336928 0.717569 0.163450
O61   O     O_R   0.872500 0.364536 0.670958 -0.330770
O62   O     O_R   0.766876 0.345091 0.723212 -0.490045
N6    N     N_R   0.886875 0.867178 0.305418 0.225231
O63   O     O_R   0.831253 0.898049 0.304462 -0.411396
O64   O     O_R   0.931887 0.869410 0.360532 -0.303182
N7    N     N_R   0.933395 0.850147 0.604770 0.176872
O65   O     O_R   0.940574 0.829653 0.540080 -0.342792
O66   O     O_R   0.889297 0.888891 0.612871 -0.441934
N8    N     N_R   0.874519 0.139331 0.284151 0.233176
O67   O     O_R   0.921517 0.130945 0.336272 -0.301954
O68   O     O_R   0.817825 0.109492 0.279173 -0.391042
N9    N     N_R   0.114337 0.056347 0.234279 0.254260
O69   O     O_R   0.130876 0.104397 0.248360 -0.286548
O70   O     O_R   0.053358 0.038209 0.258815 -0.283743
N10   N     N_R   0.129799 0.943900 0.243281 0.264753
O71   O     O_R   0.139068 0.960762 0.309986 -0.198591
O72   O     O_R   0.103400 0.897627 0.233211 -0.326156
N11   N     N_R   0.829324 0.556861 0.243434 0.225923
O73   O     O_R   0.859666 0.602268 0.248706 -0.404028
O74   O     O_R   0.804082 0.541855 0.180078 -0.342790
N12   N     N_R   0.837345 0.444157 0.245173 0.257769
O75   O     O_R   0.893619 0.459322 0.208342 -0.290835
O76   O     O_R   0.809181 0.399022 0.230590 -0.393403
H69   H     H_    0.894814 0.330382 0.960046 0.187757
H70   H     H_    0.889052 0.844292 0.056642 0.172291
H71   H     H_    0.125655 0.912966 0.732413 0.191496
H72   H     H_    0.875052 0.186715 0.042711 0.171621
H73   H     H_    0.670604 0.624552 0.172281 0.201889
H74   H     H_    0.390601 0.178686 0.534969 0.182515
H75   H     H_    0.654711 0.392298 0.194787 0.200297
H76   H     H_    0.668224 0.618710 0.819703 0.217062
N13   N     N_R   0.319857 0.891202 0.339125 0.244640
O77   O     O_R   0.330117 0.933748 0.376183 -0.280717
O78   O     O_R   0.253890 0.877931 0.322209 -0.233263
N14   N     N_R   0.625550 0.322199 0.982170 0.225125
O79   O     O_R   0.674150 0.358541 0.987964 -0.374552
O80   O     O_R   0.606906 0.296821 0.040603 -0.354188
N15   N     N_R   0.349648 0.085417 0.307742 0.240532
O81   O     O_R   0.370917 0.039923 0.329527 -0.317074
O82   O     O_R   0.280879 0.093314 0.297032 -0.248877
N16   N     N_R   0.308196 0.876770 0.646066 0.218932
O83   O     O_R   0.315102 0.922670 0.617538 -0.372715
O84   O     O_R   0.243897 0.856315 0.649238 -0.290623
N17   N     N_R   0.117620 0.171054 0.520217 0.242215
O85   O     O_R   0.172548 0.139739 0.515291 -0.329145
O86   O     O_R   0.087268 0.187640 0.460200 -0.298214
N18   N     N_R   0.104141 0.637838 0.456755 0.249072
O87   O     O_R   0.170318 0.622367 0.467821 -0.314957
O88   O     O_R   0.053102 0.620228 0.498816 -0.287686
N19   N     N_R   0.867828 0.576238 0.782926 0.239154
O89   O     O_R   0.893398 0.529343 0.786304 -0.338845
O90   O     O_R   0.798425 0.583080 0.789421 -0.373957
N20   N     N_R   0.121543 0.354476 0.456467 0.238607
O91   O     O_R   0.163778 0.338730 0.509226 -0.354486
O92   O     O_R   0.110035 0.403893 0.448887 -0.279703
N21   N     N_R   0.322572 0.825264 0.214248 0.183021
O93   O     O_R   0.264651 0.797216 0.222709 -0.347351
O94   O     O_R   0.321123 0.864023 0.168859 -0.405546
N22   N     N_R   0.478395 0.315036 0.936632 0.194409
O95   O     O_R   0.466614 0.296001 0.001305 -0.375244
O96   O     O_R   0.441798 0.355149 0.914508 -0.389881
N23   N     N_R   0.337589 0.162277 0.198510 0.188116
O97   O     O_R   0.339230 0.123702 0.152575 -0.379289
O98   O     O_R   0.277092 0.187008 0.208086 -0.423571
N24   N     N_R   0.304190 0.797869 0.755426 0.199051
O99   O     O_R   0.276070 0.830273 0.801753 -0.498275
O100  O     O_R   0.265225 0.759560 0.730604 -0.308518
N25   N     N_R   0.971092 0.177631 0.570682 0.196279
O101  O     O_R   0.952430 0.193520 0.505678 -0.360924
O102  O     O_R   0.937311 0.138494 0.599568 -0.393978
N26   N     N_R   0.035814 0.740641 0.451551 0.229245
O103  O     O_R   0.036797 0.721534 0.517427 -0.296818
O104  O     O_R   0.040179 0.790653 0.443966 -0.272714
N27   N     N_R   0.829980 0.671490 0.713606 0.180386
O105  O     O_R   0.809033 0.641286 0.660470 -0.418599
O106  O     O_R   0.784302 0.703519 0.743134 -0.425808
N28   N     N_R   0.979276 0.354078 0.389223 0.232511
O107  O     O_R   0.971290 0.370509 0.456214 -0.274621
O108  O     O_R   0.936960 0.371997 0.337981 -0.367113

loop_
_geom_bond_atom_site_label_1
_geom_bond_atom_site_label_2
_geom_bond_distance
_ccdc_geom_bond_type
C160  H60   1.082687 S    
C59   N15   1.438970 S    
C49   H29   1.077741 S    
C110  C118  1.409237 A    
C32   C39   1.552257 S    
C54   C58   1.388392 A    
C171  C172  1.402401 A    
C87   C119  1.409517 A    
C21   C37   1.489881 S    
C43   C83   1.415119 A    
O26   C7    1.275472 A    
C23   C39   1.491673 S    
N27   O106  1.300368 A    
C149  H49   1.082534 S    
C174  C178  1.401688 A    
N25   O102  1.300910 A    
O30   C11   1.280959 A    
C8    C94   1.498231 S    
C107  C115  1.411034 A    
C133  C137  1.386260 A    
C105  C113  1.411905 A    
C150  H50   1.080058 S    
Zn12  O26   1.931240 S    
C126  C134  1.403518 A    
C109  C149  1.415660 A    
C156  C160  1.392001 A    
N18   O88   1.301234 A    
N4    O59   1.300091 A    
C108  C116  1.413737 A    
C59   C67   1.415729 A    
C52   C64   1.394947 A    
C53   C57   1.392295 A    
C29   H5    1.113424 S    
C112  C120  1.409991 A    
C128  N8    1.440847 S    
C62   N18   1.433135 S    
C106  C146  1.413246 A    
O11   C7    1.282482 A    
C136  C140  1.391566 A    
O34   C15   1.279889 A    
C77   C81   1.411341 A    
H16   C33   1.112973 S    
N3    O57   1.300260 A    
H11   C175  1.081626 S    
Zn1   O44   1.944304 S    
C25   H1    1.113462 S    
N7    O66   1.299476 A    
Zn2   O43   1.944302 S    
C79   C83   1.410642 A    
C124  C132  1.396808 A    
C169  C173  1.415679 A    
Zn5   O48   1.944304 S    
C65   C73   1.441121 A    
Zn6   O47   1.944302 S    
C171  C175  1.415675 A    
C128  C136  1.404832 A    
Zn7   O46   1.946417 S    
O16   C12   1.280271 A    
N13   O78   1.300366 A    
C159  H59   1.081306 S    
C58   C66   1.409624 A    
Zn16  O4    1.961918 S    
Zn12  O4    1.959683 S    
Zn1   O13   1.937920 S    
C22   C38   1.490198 S    
C30   H66   1.113042 S    
C178  N9    1.440949 S    
H18   C36   1.113059 S    
C26   C28   1.546967 S    
C121  N1    1.433273 S    
Zn4   O16   1.949602 S    
C180  N11   1.438027 S    
C99   C123  1.437331 A    
C28   H4    1.113013 S    
C97   C121  1.430744 A    
C141  C149  1.388745 A    
C42   C50   1.389832 A    
C168  C172  1.413669 A    
Zn6   O4    1.946378 S    
C46   C86   1.410974 A    
C31   C40   1.554696 S    
C30   H6    1.113069 S    
C125  N5    1.434542 S    
Zn10  O22   1.931240 S    
C121  C129  1.402531 A    
C88   C120  1.409723 A    
C65   N21   1.430446 S    
O25   C8    1.293266 A    
Zn13  O29   1.941094 S    
C100  C124  1.436875 A    
H9    C173  1.080815 S    
Zn10  O2    1.959683 S    
C71   C79   1.437789 A    
O29   C12   1.274889 A    
C72   C80   1.434093 A    
N12   O75   1.301371 A    
C82   C114  1.416765 A    
N24   O99   1.298776 A    
N7    O65   1.299555 A    
C90   C98   1.427779 A    
C177  C178  1.410334 A    
C41   C49   1.387211 A    
C26   H2    1.113051 S    
C86   C118  1.415084 A    
O37   C17   1.284780 A    
C94   C102  1.424822 A    
O48   C23   1.277592 A    
C97   C109  1.407335 A    
C45   C85   1.411271 A    
C46   H26   1.076947 S    
C63   C71   1.414219 A    
N21   O94   1.300312 A    
C135  H39   1.083544 S    
C48   C88   1.411738 A    
C78   C94   1.422080 A    
Zn16  O35   1.941817 S    
C4    C90   1.466770 S    
C75   C87   1.418510 A    
N16   O83   1.301630 A    
C68   N24   1.429661 S    
C35   C36   1.544269 S    
Zn15  O33   1.941094 S    
Zn7   O10   1.949559 S    
C153  C162  1.408351 A    
O33   C16   1.277135 A    
C5    C95   1.453036 S    
C135  C139  1.379271 A    
O40   C20   1.277979 A    
C6    C96   1.473546 S    
C100  C112  1.419166 A    
C165  C169  1.417216 A    
N14   O79   1.301241 A    
N1    O54   1.299417 A    
C15   C119  1.451567 S    
C44   H24   1.078476 S    
N22   O95   1.298344 A    
Zn5   O17   1.937920 S    
C110  C150  1.418277 A    
C122  N2    1.425783 S    
C47   C55   1.380483 A    
C25   C27   1.534897 S    
C55   H35   1.083289 S    
C157  C158  1.387376 A    
C173  C177  1.402381 A    
N5    O62   1.299523 A    
C93   C101  1.423742 A    
C111  C119  1.403165 A    
C27   H3    1.113575 S    
N9    O70   1.301455 A    
C147  H47   1.079080 S    
C32   H8    1.113089 S    
Zn8   O3    1.942155 S    
C129  H41   1.082961 S    
C17   C166  1.442760 S    
C47   H27   1.082080 S    
C172  C176  1.415870 A    
C66   N22   1.430729 S    
N6    O63   1.301156 A    
C69   C77   1.436049 A    
O38   C18   1.277023 A    
C67   C75   1.444230 A    
C139  H71   1.082978 S    
O5    C1    1.272185 A    
N3    O58   1.301650 A    
N2    O56   1.299965 A    
O32   C9    1.284028 A    
C33   C37   1.551252 S    
C16   C120  1.462806 S    
C35   C39   1.551322 S    
C80   C84   1.399965 A    
Zn15  O51   1.947527 S    
C169  C170  1.403697 A    
Zn11  O28   1.929452 S    
Zn12  O40   1.947484 S    
C64   N20   1.433211 S    
C27   H63   1.113105 S    
C101  C125  1.431641 A    
C134  H38   1.082574 S    
C78   C82   1.409857 A    
N8    O68   1.301707 A    
C75   C91   1.436879 A    
C14   C118  1.459360 S    
O8    C4    1.284466 A    
N23   O98   1.300218 A    
C63   N19   1.438994 S    
C170  C174  1.415950 A    
C66   C74   1.434396 A    
C131  C143  1.383473 A    
N26   O103  1.299902 A    
C50   H30   1.083143 S    
C9    C113  1.460316 S    
O50   C18   1.277123 A    
C111  C151  1.416803 A    
C123  C131  1.401281 A    
Zn1   O1    1.946380 S    
C138  C146  1.388967 A    
Zn13  O1    1.959375 S    
Zn2   O14   1.949492 S    
C31   H67   1.113629 S    
N25   O101  1.300137 A    
C42   H22   1.080507 S    
C27   C38   1.554424 S    
C130  H42   1.081876 S    
C51   C63   1.390063 A    
O9    C5    1.276171 A    
O39   C19   1.279988 A    
O36   C13   1.282073 A    
C103  C107  1.418287 A    
C74   C90   1.426553 A    
C43   C51   1.383980 A    
C145  H45   1.080542 S    
C101  C105  1.412948 A    
O13   C9    1.278172 A    
N10   O71   1.301452 A    
Zn1   O8    1.949449 S    
Zn2   O7    1.937877 S    
Zn3   O6    1.949559 S    
N4    O60   1.300019 A    
O18   C14   1.279097 A    
O31   C10   1.291161 A    
O6    C2    1.274434 A    
Zn4   O41   1.946417 S    
C45   H25   1.082433 S    
C137  H69   1.082736 S    
N20   O91   1.301234 A    
C109  C117  1.403373 A    
C52   H32   1.083181 S    
C157  H57   1.082449 S    
C95   C103  1.434190 A    
N19   O89   1.301489 A    
Zn14  O30   1.929705 S    
C152  H52   1.080131 S    
Zn15  O3    1.959375 S    
C56   H36   1.083091 S    
Zn11  O3    1.962225 S    
O41   C21   1.275135 A    
C104  C108  1.398632 A    
C146  H46   1.081400 S    
Zn16  O34   1.929705 S    
N17   O86   1.300451 A    
C91   C99   1.434791 A    
O15   C11   1.275518 A    
C106  C114  1.415509 A    
C126  N6    1.438636 S    
C89   C97   1.427619 A    
C48   H28   1.082385 S    
Zn8   O20   1.949602 S    
C84   C116  1.412116 A    
C130  C142  1.383702 A    
C92   C100  1.431069 A    
C103  C127  1.443139 A    
C125  C133  1.401050 A    
N27   O105  1.299224 A    
C159  C160  1.387644 A    
C96   C104  1.431561 A    
C76   C92   1.432511 A    
H20   C35   1.108384 S    
C56   C60   1.393190 A    
C36   C40   1.548579 S    
C69   N25   1.435430 S    
C30   C40   1.551727 S    
C123  N3    1.429918 S    
Zn8   O9    1.939507 S    
C107  C147  1.417620 A    
C154  C161  1.418767 A    
C105  C145  1.415508 A    
C32   H68   1.113028 S    
C161  C165  1.409885 A    
C166  C170  1.413811 A    
C163  C167  1.411847 A    
H12   C176  1.081630 S    
O7    C3    1.270785 A    
C164  C168  1.413797 A    
C131  H43   1.083189 S    
C19   C168  1.438826 S    
C20   C167  1.437930 S    
N11   O73   1.301662 A    
O19   C15   1.274620 A    
C108  C148  1.414561 A    
H19   C36   1.113209 S    
C25   H61   1.112692 S    
Zn9   O24   1.929452 S    
C153  C157  1.393497 A    
Zn6   O18   1.949492 S    
C99   C111  1.410665 A    
Zn10  O23   1.940842 S    
C155  C159  1.393063 A    
C179  C180  1.409107 A    
C112  C152  1.414838 A    
C46   C54   1.384665 A    
C73   C85   1.419061 A    
O14   C10   1.288472 A    
N15   O82   1.300380 A    
Zn15  O36   1.931493 S    
N12   O76   1.301583 A    
O42   C22   1.277730 A    
C33   C34   1.544628 S    
N24   O100  1.301136 A    
C28   H64   1.112983 S    
Zn4   O1    1.942155 S    
C30   C32   1.546217 S    
C98   C122  1.426162 A    
C18   C165  1.436233 S    
Zn9   O37   1.946201 S    
O12   C8    1.287815 A    
Zn11  O39   1.946201 S    
C70   C78   1.425458 A    
N21   O93   1.301162 A    
C62   C70   1.415417 A    
N6    O64   1.301676 A    
C54   H34   1.079944 S    
N16   O84   1.300743 A    
Zn5   O3    1.946380 S    
C151  H51   1.082598 S    
C44   C52   1.389424 A    
C31   H7    1.113415 S    
C45   C53   1.382538 A    
C137  C145  1.388494 A    
C48   C56   1.384757 A    
C1    C91   1.458188 S    
C2    C92   1.461930 S    
C12   C116  1.455567 S    
C41   H21   1.077286 S    
C42   C82   1.410923 A    
N14   O80   1.300279 A    
C76   C88   1.415722 A    
C58   N14   1.433921 S    
C83   C115  1.409673 A    
O28   C5    1.284865 A    
C25   C37   1.553745 S    
N19   O90   1.300354 A    
C81   C113  1.416485 A    
Zn3   O42   1.946417 S    
C176  C180  1.400660 A    
C70   N26   1.443012 S    
C53   H33   1.083099 S    
N22   O96   1.300984 A    
Zn7   O4    1.942157 S    
O21   C4    1.279541 A    
C148  H48   1.080509 S    
N28   O107  1.301775 A    
C98   C110  1.411984 A    
C85   C117  1.411803 A    
C60   C68   1.416376 A    
C61   C69   1.411166 A    
C64   C72   1.417023 A    
Zn2   O2    1.946378 S    
N5    O61   1.301139 A    
Zn14  O2    1.961918 S    
N15   O81   1.301142 A    
C29   C39   1.553956 S    
C71   N27   1.428562 S    
N23   O97   1.300418 A    
Zn13  O49   1.947527 S    
N9    O69   1.301692 A    
C50   C62   1.395360 A    
C55   C59   1.388977 A    
C154  H54   1.075800 S    
C41   C81   1.408502 A    
C153  H53   1.073002 S    
Zn12  O27   1.940842 S    
C155  H55   1.079713 S    
C144  H76   1.080595 S    
C134  C138  1.386933 A    
C179  N12   1.437952 S    
Zn3   O2    1.942157 S    
C143  C151  1.385904 A    
C140  H72   1.082661 S    
C129  C141  1.386786 A    
C79   C95   1.431386 A    
C80   C96   1.441001 A    
O46   C24   1.277580 A    
O47   C24   1.273646 A    
Zn16  O52   1.946244 S    
C175  C179  1.401879 A    
Zn8   O45   1.946417 S    
C136  H40   1.082550 S    
C57   C65   1.416946 A    
O27   C6    1.277737 A    
H15   C34   1.111307 S    
C29   H65   1.111987 S    
C49   C61   1.391859 A    
C132  H44   1.083540 S    
C133  H37   1.082614 S    
C24   C40   1.488509 S    
C29   C31   1.535952 S    
C26   C38   1.550837 S    
O24   C1    1.292016 A    
C132  C144  1.381642 A    
N26   O104  1.301193 A    
C142  H74   1.083004 S    
C61   N17   1.437760 S    
C124  N4    1.424830 S    
C161  C162  1.399220 A    
C138  H70   1.082580 S    
O43   C22   1.274417 A    
C47   C87   1.412698 A    
C34   C38   1.551286 S    
Zn3   O15   1.939551 S    
N11   O74   1.301374 A    
Zn5   O12   1.949449 S    
Zn6   O11   1.937877 S    
C67   N23   1.430348 S    
Zn9   O21   1.941565 S    
Zn14  O50   1.946244 S    
H13   C33   1.111902 S    
C155  C164  1.418741 A    
C102  C126  1.429342 A    
O35   C14   1.278999 A    
C127  N7    1.427913 S    
C156  H56   1.079902 S    
Zn9   O1    1.962225 S    
N10   O72   1.301815 A    
C162  C166  1.408281 A    
C11   C115  1.454180 S    
O52   C20   1.276455 A    
C167  C171  1.413391 A    
C142  C150  1.386758 A    
C7    C93   1.447837 S    
C163  C164  1.405060 A    
C72   N28   1.438384 S    
N18   O87   1.301160 A    
C13   C117  1.452244 S    
C177  N10   1.438337 S    
O44   C21   1.276837 A    
O22   C3    1.293976 A    
N20   O92   1.301085 A    
C26   H62   1.113078 S    
C154  C158  1.392461 A    
Zn7   O19   1.939551 S    
C51   H31   1.083303 S    
C10   C114  1.493432 S    
C127  C135  1.399033 A    
Zn13  O32   1.931493 S    
O49   C17   1.272033 A    
Zn14  O31   1.941817 S    
C74   C86   1.415791 A    
C156  C163  1.418199 A    
C57   N13   1.441552 S    
C139  C147  1.382479 A    
N13   O77   1.301342 A    
O51   C19   1.275300 A    
C122  C130  1.400561 A    
C158  H58   1.082172 S    
C77   C93   1.421129 A    
N2    O55   1.300833 A    
C3    C89   1.459557 S    
H17   C35   1.111600 S    
C43   H23   1.079985 S    
N17   O85   1.301513 A    
Zn4   O5    1.939507 S    
H10   C174  1.080378 S    
C60   N16   1.441279 S    
O17   C13   1.274222 A    
O20   C16   1.277326 A    
O10   C6    1.288822 A    
O23   C2    1.284505 A    
C28   C37   1.551285 S    
Zn11  O25   1.941565 S    
N28   O108  1.300897 A    
C143  H75   1.082583 S    
N1    O53   1.301697 A    
Zn10  O38   1.947484 S    
C140  C148  1.392946 A    
C102  C106  1.413626 A    
C44   C84   1.410705 A    
H14   C34   1.112950 S    
C68   C76   1.437886 A    
N8    O67   1.302098 A    
C144  C152  1.385543 A    
C141  H73   1.082786 S    
C73   C89   1.433355 A    
C104  C128  1.428104 A    
O45   C23   1.275311 A    
