data_mof_unit_4444.cif
_audit_creation_date              2012-12-10T18:05:58-0500
_audit_creation_method            fapswitch 2.2
_symmetry_space_group_name_H-M    P1
_symmetry_Int_Tables_number       1
_space_group_crystal_system       triclinic
_cell_length_a                    25.879273
_cell_length_b                    25.982033
_cell_length_c                    22.187087
_cell_angle_alpha                 90.018146
_cell_angle_beta                  54.252673
_cell_angle_gamma                 89.989249
_cell_volume                      12107.8803759

loop_
_atom_site_label
_atom_site_type_symbol
_atom_type_description
_atom_site_fract_x
_atom_site_fract_y
_atom_site_fract_z
_atom_type_partial_charge
C1    C     C_R   0.400305 0.250003 0.699282 0.820251
C2    C     C_R   0.599778 0.750055 0.300573 0.807885
C3    C     C_R   0.599750 0.249836 0.300648 0.814253
C4    C     C_R   0.400519 0.749723 0.699379 0.807268
C5    C     C_R   0.900671 0.750338 0.699300 0.809561
C6    C     C_R   0.099488 0.249777 0.300693 0.812918
C7    C     C_R   0.099601 0.750101 0.300704 0.811086
C8    C     C_R   0.900355 0.250005 0.699316 0.808639
C9    C     C_3   0.778259 0.274885 0.024967 0.349517
C10   C     C_3   0.214687 0.752972 0.975589 0.396750
C11   C     C_3   0.222285 0.277267 0.976408 0.347205
C12   C     C_3   0.789780 0.746204 0.024924 0.393719
C13   C     C_3   0.287153 0.742059 0.024796 0.362696
C14   C     C_3   0.723272 0.219072 0.974785 0.385110
C15   C     C_3   0.718686 0.760310 0.974289 0.353011
C16   C     C_3   0.273693 0.213968 0.024081 0.347557
C17   C     C_3   0.713916 0.245849 0.074081 -0.076067
C18   C     C_3   0.288156 0.746835 0.926095 -0.118198
C19   C     C_3   0.284896 0.246459 0.925483 -0.113734
C20   C     C_3   0.716427 0.753228 0.073690 -0.114957
C21   C     C_3   0.213736 0.748691 0.074364 -0.073027
C22   C     C_3   0.787219 0.248516 0.925745 -0.119946
C23   C     C_3   0.792132 0.753661 0.925543 -0.068792
C24   C     C_3   0.211815 0.245507 0.074373 -0.123143
C25   C     C_1   0.673439 0.246928 0.154963 0.095220
C26   C     C_1   0.328800 0.747494 0.845143 0.054940
C27   C     C_1   0.325790 0.248181 0.844746 0.057569
C28   C     C_1   0.674595 0.752354 0.154704 0.045672
C29   C     C_1   0.173115 0.749645 0.155135 0.094571
C30   C     C_1   0.827666 0.249803 0.844935 0.050783
C31   C     C_1   0.831462 0.753229 0.844746 0.095102
C32   C     C_1   0.171157 0.247217 0.155153 0.037239
C33   C     C_R   0.311074 0.255055 0.432488 0.455043
C34   C     C_R   0.689360 0.741600 0.566709 0.457635
C35   C     C_R   0.688842 0.253073 0.567704 0.456078
C36   C     C_R   0.309436 0.735479 0.435736 0.458527
C37   C     C_R   0.810817 0.758185 0.433028 0.459617
C38   C     C_R   0.188984 0.245097 0.567466 0.457547
C39   C     C_R   0.190103 0.764148 0.564880 0.458919
C40   C     C_R   0.811154 0.246240 0.432308 0.457182
C41   C     C_R   0.257155 0.256763 0.432421 -0.064593
C42   C     C_R   0.743454 0.739891 0.566524 -0.068053
C43   C     C_R   0.742771 0.255529 0.567739 -0.068191
C44   C     C_R   0.255441 0.734538 0.435710 -0.062701
C45   C     C_R   0.756708 0.759816 0.433192 -0.063667
C46   C     C_R   0.242887 0.243690 0.567592 -0.062071
C47   C     C_R   0.244214 0.765335 0.564785 -0.060867
C48   C     C_R   0.757300 0.244926 0.432092 -0.063565
C49   C     C_R   0.196340 0.250382 0.499724 -0.246109
C50   C     C_R   0.803795 0.749628 0.500063 -0.245107
C51   C     C_R   0.803699 0.250443 0.500226 -0.245568
C52   C     C_R   0.196189 0.749854 0.499896 -0.244304
C53   C     C_R   0.696325 0.750254 0.499738 -0.242687
C54   C     C_R   0.303713 0.249846 0.500235 -0.250520
C55   C     C_R   0.303539 0.750159 0.500478 -0.240573
C56   C     C_R   0.696326 0.249629 0.499704 -0.250692
C57   C     C_R   0.491692 0.026692 0.451546 -0.189017
C58   C     C_R   0.507715 0.973328 0.549019 -0.188043
C59   C     C_R   0.507672 0.026726 0.549053 -0.198823
C60   C     C_R   0.491714 0.973301 0.451532 -0.188537
C61   C     C_R   0.990523 0.526682 0.452472 -0.190664
C62   C     C_R   0.009496 0.473313 0.547507 -0.189446
C63   C     C_R   0.009494 0.526707 0.547503 -0.189577
C64   C     C_R   0.990524 0.473288 0.452476 -0.190278
C65   C     C_R   0.499800 0.946329 0.500201 0.008224
C66   C     C_R   0.499751 0.053688 0.500234 0.009485
C67   C     C_R   0.000009 0.446318 0.499996 0.008432
C68   C     C_R   0.000006 0.553678 0.499988 0.008528
C69   C     C_R   0.640147 0.249944 0.499887 0.885992
C70   C     C_R   0.359811 0.750032 0.500180 0.884064
C71   C     C_R   0.359885 0.250029 0.500046 0.884702
C72   C     C_R   0.640131 0.750004 0.499936 0.884762
C73   C     C_R   0.140078 0.750037 0.499983 0.887189
C74   C     C_R   0.859862 0.250060 0.500090 0.879672
C75   C     C_R   0.859917 0.750011 0.499983 0.887557
C76   C     C_R   0.140149 0.250036 0.499909 0.880992
C77   C     C_R   0.499922 0.109772 0.500069 0.788597
C78   C     C_R   0.499955 0.890234 0.500048 0.789063
C79   C     C_R   0.000001 0.609769 0.499994 0.787805
C80   C     C_R   0.000003 0.390230 0.500001 0.789873
C81   C     C_R   0.499931 0.390235 0.499803 0.923692
C82   C     C_R   0.499889 0.609801 0.499715 0.894788
C83   C     C_R   0.999965 0.890286 0.499986 0.963744
C84   C     C_R   0.000040 0.109886 0.500197 0.902408
C85   C     C_R   0.554063 0.473333 0.442258 0.307005
C86   C     C_R   0.445953 0.526748 0.557319 0.310703
C87   C     C_R   0.444627 0.473335 0.555048 0.306109
C88   C     C_R   0.552302 0.526750 0.439808 0.310810
C89   C     C_R   0.039837 0.973350 0.432502 0.305804
C90   C     C_R   0.961886 0.027195 0.567765 0.307742
C91   C     C_R   0.959703 0.973355 0.567524 0.303005
C92   C     C_R   0.037808 0.027166 0.432329 0.310484
C93   C     C_R   0.499457 0.553752 0.499051 -0.362751
C94   C     C_R   0.499643 0.446330 0.499166 -0.361922
C95   C     C_R   0.999962 0.053935 0.500091 -0.343323
C96   C     C_R   0.999865 0.946504 0.500011 -0.336603
C97   C     C_3   0.292719 0.786526 0.975010 0.376819
C98   C     C_3   0.743470 0.197818 0.023370 0.385220
C99   C     C_3   0.723974 0.798740 0.023769 0.380257
C100  C     C_3   0.252907 0.198104 0.974116 0.399656
C101  C     C_3   0.757002 0.295959 0.977547 0.389106
C102  C     C_3   0.208176 0.708892 0.026550 0.371861
C103  C     C_3   0.244945 0.293638 0.024524 0.388188
C104  C     C_3   0.785734 0.708065 0.974256 0.373883
C105  C     C_3   0.693928 0.266518 0.025552 -0.087318
C106  C     C_3   0.281531 0.702483 0.977156 -0.167062
C107  C     C_3   0.306328 0.262030 0.974973 -0.099633
C108  C     C_3   0.712392 0.714827 0.022671 -0.174048
C109  C     C_3   0.219825 0.792349 0.023517 -0.101107
C110  C     C_3   0.807675 0.227083 0.974423 -0.173667
C111  C     C_3   0.796574 0.791306 0.975896 -0.097497
C112  C     C_3   0.190601 0.228933 0.024791 -0.090956
C113  C     C_1   0.639957 0.248492 0.221535 -0.146219
C114  C     C_1   0.361732 0.748580 0.778535 -0.151736
C115  C     C_1   0.359897 0.249232 0.778251 -0.159765
C116  C     C_1   0.640349 0.751166 0.221347 -0.143222
C117  C     C_1   0.139454 0.749972 0.221675 -0.153780
C118  C     C_1   0.860897 0.250051 0.778376 -0.153488
C119  C     C_1   0.863018 0.752035 0.778262 -0.147621
C120  C     C_1   0.138193 0.248638 0.221677 -0.156399
H1    H     H_    0.485482 0.046752 0.413393 0.160085
H2    H     H_    0.513914 0.953265 0.587179 0.160789
H3    H     H_    0.513828 0.046815 0.587249 0.160421
H4    H     H_    0.485510 0.953221 0.413375 0.161407
H5    H     H_    0.983113 0.546744 0.415311 0.159834
H6    H     H_    0.016908 0.453251 0.584668 0.160302
H7    H     H_    0.016904 0.546787 0.584663 0.160869
H8    H     H_    0.983114 0.453206 0.415315 0.159616
O1    O     O_3   0.500000 0.250030 0.500000 -0.482005
O2    O     O_3   0.500000 0.749970 0.500000 -0.485447
O3    O     O_3   0.000000 0.750030 0.500000 -0.482663
O4    O     O_3   0.000000 0.249970 0.500000 -0.485301
O5    O     O_R   0.387450 0.280380 0.664420 -0.638918
O6    O     O_R   0.612550 0.719620 0.335580 -0.655967
O7    O     O_R   0.612550 0.280380 0.335580 -0.642668
O8    O     O_R   0.387450 0.719620 0.664420 -0.654959
O9    O     O_R   0.887450 0.780380 0.664420 -0.649116
O10   O     O_R   0.112550 0.219620 0.335580 -0.648531
O11   O     O_R   0.112550 0.780380 0.335580 -0.649340
O12   O     O_R   0.887450 0.219620 0.664420 -0.644680
O13   O     O_R   0.594260 0.219670 0.543090 -0.635994
O14   O     O_R   0.405740 0.780330 0.456910 -0.651472
O15   O     O_R   0.405740 0.219670 0.456910 -0.641000
O16   O     O_R   0.594260 0.780330 0.543090 -0.645409
O17   O     O_R   0.094260 0.719670 0.543090 -0.649977
O18   O     O_R   0.905740 0.280330 0.456910 -0.642850
O19   O     O_R   0.905740 0.719670 0.456910 -0.645227
O20   O     O_R   0.094260 0.280330 0.543090 -0.642809
O21   O     O_R   0.508800 0.134220 0.543090 -0.651500
O22   O     O_R   0.491200 0.865780 0.456910 -0.649150
O23   O     O_R   0.491200 0.134220 0.456910 -0.650480
O24   O     O_R   0.508800 0.865780 0.543090 -0.650235
O25   O     O_R   0.008800 0.634220 0.543090 -0.650304
O26   O     O_R   0.991200 0.365780 0.456910 -0.650765
O27   O     O_R   0.991200 0.634220 0.456910 -0.651621
O28   O     O_R   0.008800 0.365780 0.543090 -0.650359
O29   O     O_R   0.448100 0.365830 0.543110 -0.620869
O30   O     O_R   0.551900 0.634170 0.456890 -0.607483
O31   O     O_R   0.551900 0.365830 0.456890 -0.622124
O32   O     O_R   0.448100 0.634170 0.543110 -0.606972
O33   O     O_R   0.948100 0.865830 0.543110 -0.636699
O34   O     O_R   0.051900 0.134170 0.456890 -0.615122
O35   O     O_R   0.051900 0.865830 0.456890 -0.638103
O36   O     O_R   0.948100 0.134170 0.543110 -0.613346
O37   O     O_R   0.637370 0.280400 0.456880 -0.666585
O38   O     O_R   0.362630 0.719600 0.543120 -0.644967
O39   O     O_R   0.362630 0.280400 0.543120 -0.666529
O40   O     O_R   0.637370 0.719600 0.456880 -0.649855
O41   O     O_R   0.137370 0.780400 0.456880 -0.652280
O42   O     O_R   0.862630 0.219600 0.543120 -0.655427
O43   O     O_R   0.862630 0.780400 0.543120 -0.656586
O44   O     O_R   0.137370 0.219600 0.456880 -0.654776
O45   O     O_R   0.448170 0.219660 0.664410 -0.650997
O46   O     O_R   0.551830 0.780340 0.335590 -0.633768
O47   O     O_R   0.551830 0.219660 0.335590 -0.641405
O48   O     O_R   0.448170 0.780340 0.664410 -0.634744
O49   O     O_R   0.948170 0.719660 0.664410 -0.636513
O50   O     O_R   0.051830 0.280340 0.335590 -0.638023
O51   O     O_R   0.051830 0.719660 0.335590 -0.635995
O52   O     O_R   0.948170 0.280340 0.664410 -0.638340
Zn1   Zn    Zn3+2 0.574170 0.293410 0.438410 0.961328
Zn2   Zn    Zn3+2 0.425830 0.706590 0.561590 0.969066
Zn3   Zn    Zn3+2 0.425830 0.293410 0.561590 0.962022
Zn4   Zn    Zn3+2 0.574170 0.706590 0.438410 0.967441
Zn5   Zn    Zn3+2 0.074170 0.793410 0.438410 0.971674
Zn6   Zn    Zn3+2 0.925830 0.206590 0.561590 0.971832
Zn7   Zn    Zn3+2 0.925830 0.793410 0.561590 0.969894
Zn8   Zn    Zn3+2 0.074170 0.206590 0.438410 0.971004
Zn9   Zn    Zn3+2 0.512590 0.206650 0.561580 0.956372
Zn10  Zn    Zn3+2 0.487410 0.793350 0.438420 0.958405
Zn11  Zn    Zn3+2 0.487410 0.206650 0.438420 0.961216
Zn12  Zn    Zn3+2 0.512590 0.793350 0.561580 0.961218
Zn13  Zn    Zn3+2 0.012590 0.706650 0.561580 0.962243
Zn14  Zn    Zn3+2 0.987410 0.293350 0.438420 0.959196
Zn15  Zn    Zn3+2 0.987410 0.706650 0.438420 0.964261
Zn16  Zn    Zn3+2 0.012590 0.293350 0.561580 0.960446
O53   O     O_3   0.606945 0.447575 0.384227 -0.604924
C121  C     C_3   0.653873 0.445369 0.397885 0.159053
H9    H     H_    0.633451 0.431461 0.455306 0.126506
H10   H     H_    0.675301 0.484080 0.390359 0.160206
C122  C     C_3   0.706183 0.407955 0.342620 -0.295140
H11   H     H_    0.684699 0.369990 0.346307 0.262372
H12   H     H_    0.729816 0.422981 0.285289 0.214074
C123  C     C_3   0.755943 0.400469 0.358083 -1.006869
H13   H     H_    0.778302 0.437861 0.354695 0.267449
H14   H     H_    0.793591 0.373830 0.316211 0.260011
H15   H     H_    0.733661 0.383517 0.414111 0.273664
O54   O     O_3   0.392170 0.552279 0.614080 -0.602287
C124  C     C_3   0.396082 0.558256 0.674532 0.155049
H16   H     H_    0.439829 0.580045 0.657373 0.115685
H17   H     H_    0.396557 0.520075 0.697077 0.153946
C125  C     C_3   0.337816 0.588339 0.735642 -0.326689
H18   H     H_    0.334516 0.625154 0.712619 0.256395
H19   H     H_    0.294054 0.565627 0.756164 0.214942
C126  C     C_3   0.341430 0.600096 0.800378 -0.980029
H20   H     H_    0.342107 0.563856 0.826467 0.272751
H21   H     H_    0.299125 0.622937 0.842452 0.267956
H22   H     H_    0.384769 0.622962 0.781147 0.265554
O55   O     O_3   0.390836 0.447693 0.611766 -0.606715
C127  C     C_3   0.346679 0.444007 0.593911 0.159252
H23   H     H_    0.369752 0.429181 0.536301 0.127499
H24   H     H_    0.325325 0.482372 0.598942 0.159494
C128  C     C_3   0.293647 0.406747 0.648146 -0.296701
H25   H     H_    0.314824 0.369349 0.647537 0.263615
H26   H     H_    0.267166 0.422832 0.705283 0.212605
C129  C     C_3   0.247338 0.397263 0.627852 -0.999853
H27   H     H_    0.225359 0.434053 0.628080 0.266451
H28   H     H_    0.209022 0.370815 0.669069 0.258147
H29   H     H_    0.272473 0.379233 0.572030 0.275601
O56   O     O_3   0.603928 0.552230 0.379910 -0.602257
C130  C     C_3   0.592698 0.559289 0.325326 0.157224
H30   H     H_    0.547459 0.580843 0.348561 0.115022
H31   H     H_    0.590009 0.521450 0.303616 0.150629
C131  C     C_3   0.647570 0.590270 0.261031 -0.336161
H32   H     H_    0.654424 0.626072 0.282902 0.256848
H33   H     H_    0.692207 0.567361 0.233146 0.214108
C132  C     C_3   0.634490 0.604597 0.204435 -0.981965
H34   H     H_    0.630554 0.569393 0.178936 0.270992
H35   H     H_    0.674166 0.628495 0.160190 0.268436
H36   H     H_    0.589841 0.627339 0.231244 0.264643
O57   O     O_3   0.073802 0.946836 0.365736 -0.623478
C133  C     C_3   0.139095 0.946277 0.336648 0.150898
H37   H     H_    0.146292 0.929425 0.377437 0.146524
H38   H     H_    0.159533 0.985767 0.321968 0.172150
C134  C     C_3   0.174724 0.913501 0.266115 -0.313059
H39   H     H_    0.152020 0.874999 0.278488 0.255582
H40   H     H_    0.171659 0.932154 0.223200 0.219368
C135  C     C_3   0.244575 0.906629 0.235491 -0.983614
H41   H     H_    0.268854 0.944537 0.221036 0.264220
H42   H     H_    0.268493 0.882440 0.184703 0.269849
H43   H     H_    0.248733 0.887148 0.277046 0.271225
O58   O     O_3   0.923956 0.053611 0.634268 -0.620974
C136  C     C_3   0.959241 0.063491 0.663135 0.140694
H44   H     H_    0.001630 0.087740 0.623994 0.116899
H45   H     H_    0.975145 0.026802 0.673550 0.158395
C137  C     C_3   0.916695 0.092371 0.736749 -0.355617
H46   H     H_    0.896970 0.127321 0.728148 0.239403
H47   H     H_    0.876367 0.067193 0.777742 0.217229
C138  C     C_3   0.953270 0.108576 0.768114 -0.974903
H48   H     H_    0.972889 0.074252 0.778104 0.272556
H49   H     H_    0.920641 0.129007 0.821647 0.272342
H50   H     H_    0.992793 0.135009 0.728992 0.274143
O59   O     O_3   0.924960 0.946787 0.634216 -0.624629
C139  C     C_3   0.859767 0.947242 0.662802 0.149276
H51   H     H_    0.852590 0.930555 0.621901 0.144321
H52   H     H_    0.840180 0.987026 0.676878 0.174789
C140  C     C_3   0.822923 0.914933 0.733719 -0.312713
H53   H     H_    0.843164 0.875455 0.721353 0.255449
H54   H     H_    0.827924 0.932355 0.775851 0.218124
C141  C     C_3   0.752417 0.911570 0.765728 -0.994356
H55   H     H_    0.730616 0.950538 0.780775 0.266714
H56   H     H_    0.727512 0.887235 0.816399 0.268454
H57   H     H_    0.746228 0.893884 0.724734 0.269734
O60   O     O_3   0.075806 0.053413 0.365729 -0.619955
C142  C     C_3   0.039380 0.066473 0.339282 0.139980
H58   H     H_    0.997584 0.090566 0.380471 0.116150
H59   H     H_    0.022353 0.031096 0.327501 0.153924
C143  C     C_3   0.081357 0.097163 0.267303 -0.351414
H60   H     H_    0.104914 0.129063 0.276035 0.242745
H61   H     H_    0.118945 0.071561 0.223179 0.222794
C144  C     C_3   0.042914 0.119806 0.241519 -0.957798
H62   H     H_    0.019061 0.088662 0.231972 0.273298
H63   H     H_    0.075255 0.141079 0.188712 0.278802
H64   H     H_    0.006497 0.147068 0.283709 0.267613
N1    N     N_3   0.631502 0.287924 0.054315 -0.447099
H65   H     H_    0.631119 0.296931 0.008686 0.220558
H66   H     H_    0.598074 0.258674 0.083384 0.208657
N2    N     N_3   0.315933 0.653809 0.950581 -0.476713
H67   H     H_    0.314652 0.637181 0.994297 0.205635
H68   H     H_    0.363548 0.661739 0.908353 0.197586
N3    N     N_3   0.370190 0.279391 0.946865 -0.454682
H69   H     H_    0.371397 0.284852 0.992688 0.222202
H70   H     H_    0.401450 0.249209 0.915909 0.204128
N4    N     N_3   0.665550 0.673657 0.050045 -0.476519
H71   H     H_    0.664992 0.661198 0.005654 0.203230
H72   H     H_    0.620817 0.689422 0.089563 0.190851
N5    N     N_3   0.184578 0.840562 0.050230 -0.460717
H73   H     H_    0.195801 0.861373 0.003719 0.220387
H74   H     H_    0.136186 0.831510 0.080543 0.213102
N6    N     N_3   0.870476 0.205625 0.943908 -0.484492
H75   H     H_    0.876195 0.204232 0.986754 0.201833
H76   H     H_    0.904475 0.231102 0.903798 0.191172
N7    N     N_3   0.843907 0.832014 0.948726 -0.459713
H77   H     H_    0.837101 0.849848 0.995090 0.221985
H78   H     H_    0.888658 0.814478 0.919632 0.210343
N8    N     N_3   0.127997 0.208310 0.052876 -0.425948
H79   H     H_    0.123296 0.208768 0.009206 0.215472
H80   H     H_    0.093840 0.233293 0.093889 0.170116
O61   O     O_3   0.338853 0.826024 0.943429 -0.648361
C145  C     C_3   0.328820 0.859627 0.999359 0.090983
H81   H     H_    0.319756 0.838373 0.048286 0.159275
H82   H     H_    0.287716 0.885275 0.017785 0.172482
C146  C     C_3   0.388066 0.893002 0.967302 -0.344812
H83   H     H_    0.430091 0.867952 0.946804 0.219668
H84   H     H_    0.396704 0.915527 0.919619 0.236371
C147  C     C_3   0.380590 0.929991 0.025373 -0.982175
H85   H     H_    0.338118 0.954886 0.047853 0.273713
H86   H     H_    0.423412 0.954870 0.999517 0.270597
H87   H     H_    0.375648 0.908141 0.071488 0.270924
O62   O     O_3   0.728976 0.147846 0.054451 -0.637157
C148  C     C_3   0.781402 0.114512 0.011342 0.098268
H88   H     H_    0.816423 0.121448 0.024152 0.170320
H89   H     H_    0.805044 0.119821 0.950711 0.134400
C149  C     C_3   0.758342 0.058859 0.031526 -0.344247
H90   H     H_    0.738551 0.051882 0.090750 0.234649
H91   H     H_    0.719872 0.052164 0.024292 0.227629
C150  C     C_3   0.812391 0.020887 0.982892 -0.969570
H92   H     H_    0.831262 0.025985 0.923626 0.263731
H93   H     H_    0.794349 0.980927 0.999821 0.270076
H94   H     H_    0.851484 0.026767 0.989255 0.272218
O63   O     O_3   0.690434 0.845436 0.054188 -0.640565
C151  C     C_3   0.708661 0.880973 0.996820 0.090753
H95   H     H_    0.708243 0.863397 0.951361 0.167853
H96   H     H_    0.757123 0.895980 0.973356 0.165198
C152  C     C_3   0.662151 0.926186 0.028948 -0.327233
H97   H     H_    0.612823 0.911605 0.056323 0.229862
H98   H     H_    0.664879 0.946134 0.071352 0.231922
C153  C     C_3   0.677227 0.964545 0.968579 -1.005101
H99   H     H_    0.727258 0.978038 0.938021 0.271776
H100  H     H_    0.645071 0.998329 0.994219 0.270977
H101  H     H_    0.669851 0.946381 0.928865 0.273974
O64   O     O_3   0.253392 0.148196 0.948654 -0.632151
C154  C     C_3   0.316193 0.128600 0.902753 0.109581
H102  H     H_    0.321020 0.097145 0.933066 0.152013
H103  H     H_    0.354091 0.157423 0.887035 0.137439
C155  C     C_3   0.327434 0.106589 0.832040 -0.327043
H104  H     H_    0.295308 0.073173 0.846666 0.228168
H105  H     H_    0.316006 0.136344 0.805504 0.229836
C156  C     C_3   0.396331 0.089452 0.776498 -0.963287
H106  H     H_    0.428642 0.123176 0.757256 0.281952
H107  H     H_    0.401928 0.071557 0.727532 0.268451
H108  H     H_    0.409823 0.060823 0.802221 0.261319
O65   O     O_3   0.763508 0.346745 0.951329 -0.641794
C157  C     C_3   0.732391 0.382029 0.011339 0.127474
H109  H     H_    0.769141 0.405149 0.010005 0.150260
H110  H     H_    0.702011 0.363699 0.067320 0.163134
C158  C     C_3   0.690897 0.418193 0.002062 -0.328734
H111  H     H_    0.721737 0.441800 0.951192 0.221389
H112  H     H_    0.658353 0.395165 0.995395 0.236078
C159  C     C_3   0.651074 0.453639 0.069168 -0.980604
H113  H     H_    0.616695 0.430717 0.119540 0.274450
H114  H     H_    0.624026 0.481068 0.059017 0.269464
H115  H     H_    0.682007 0.475857 0.079190 0.266624
O66   O     O_3   0.157299 0.673293 0.061686 -0.654152
C160  C     C_3   0.177192 0.624402 0.028355 0.099797
H116  H     H_    0.204614 0.605064 0.046079 0.168290
H117  H     H_    0.206642 0.626995 0.966765 0.135752
C161  C     C_3   0.118229 0.592214 0.054212 -0.343212
H118  H     H_    0.088287 0.588674 0.115727 0.233673
H119  H     H_    0.089698 0.611829 0.038258 0.219014
C162  C     C_3   0.136178 0.538560 0.019854 -0.978242
H120  H     H_    0.166821 0.541041 0.958259 0.269628
H121  H     H_    0.092319 0.516945 0.038083 0.271785
H122  H     H_    0.161766 0.517328 0.038352 0.274495
O67   O     O_3   0.238868 0.342860 0.055057 -0.640893
C163  C     C_3   0.276414 0.378891 0.997781 0.106158
H123  H     H_    0.271810 0.374588 0.951170 0.173843
H124  H     H_    0.327232 0.374315 0.976012 0.167481
C164  C     C_3   0.254886 0.433144 0.029452 -0.342434
H125  H     H_    0.203436 0.437467 0.053949 0.224245
H126  H     H_    0.261516 0.439032 0.074162 0.235226
C165  C     C_3   0.292563 0.474025 0.969540 -0.991105
H127  H     H_    0.344277 0.469996 0.943659 0.271495
H128  H     H_    0.277061 0.512948 0.994705 0.266769
H129  H     H_    0.284171 0.470330 0.926003 0.269761
O68   O     O_3   0.826181 0.664929 0.940135 -0.644129
C166  C     C_3   0.793969 0.618996 0.976096 0.101042
H130  H     H_    0.761816 0.608467 0.960147 0.170211
H131  H     H_    0.766146 0.622601 0.037478 0.132041
C167  C     C_3   0.843113 0.576180 0.950961 -0.325769
H132  H     H_    0.872021 0.572313 0.889527 0.234523
H133  H     H_    0.875561 0.586331 0.966599 0.216579
C168  C     C_3   0.811347 0.524731 0.986313 -0.994854
H134  H     H_    0.782015 0.527638 0.047838 0.265789
H135  H     H_    0.848313 0.494735 0.968060 0.271078
H136  H     H_    0.780754 0.513012 0.968757 0.274064
O69   O     O_3   0.177881 0.762367 0.948529 -0.631139
C169  C     C_3   0.173368 0.717010 0.916861 0.107444
H137  H     H_    0.134942 0.692344 0.961668 0.169931
H138  H     H_    0.218893 0.694973 0.884909 0.125328
C170  C     C_3   0.156366 0.730833 0.863564 -0.318890
H139  H     H_    0.110015 0.751491 0.894261 0.231529
H140  H     H_    0.193593 0.756606 0.819297 0.230442
C171  C     C_3   0.151667 0.682535 0.827815 -0.990575
H141  H     H_    0.198085 0.662006 0.795245 0.269431
H142  H     H_    0.138827 0.693369 0.789843 0.260570
H143  H     H_    0.114400 0.656317 0.871061 0.265920
O70   O     O_3   0.802107 0.303763 0.057726 -0.638837
C172  C     C_3   0.861828 0.325253 0.002433 0.076665
H144  H     H_    0.863157 0.340768 0.954769 0.162621
H145  H     H_    0.899534 0.295646 0.982020 0.147870
C173  C     C_3   0.875979 0.369357 0.036342 -0.324896
H146  H     H_    0.838185 0.399133 0.058167 0.217224
H147  H     H_    0.875986 0.354539 0.083342 0.230954
C174  C     C_3   0.940443 0.393951 0.979075 -0.986166
H148  H     H_    0.979176 0.365131 0.957689 0.270440
H149  H     H_    0.949108 0.425930 0.005342 0.270451
H150  H     H_    0.941219 0.409695 0.932000 0.271046
O71   O     O_3   0.827926 0.743776 0.051266 -0.631673
C175  C     C_3   0.818583 0.696636 0.087870 0.109577
H151  H     H_    0.849118 0.666679 0.046045 0.166123
H152  H     H_    0.768050 0.683733 0.121257 0.125182
C176  C     C_3   0.838174 0.703010 0.140439 -0.321177
H153  H     H_    0.889138 0.714371 0.108118 0.229305
H154  H     H_    0.809125 0.733990 0.181228 0.232273
C177  C     C_3   0.828575 0.653261 0.182376 -0.988260
H155  H     H_    0.777600 0.641925 0.216601 0.270666
H156  H     H_    0.843494 0.659149 0.219721 0.261882
H157  H     H_    0.857667 0.621784 0.142781 0.265292
O72   O     O_3   0.199307 0.309652 0.945796 -0.636733
C178  C     C_3   0.140629 0.331760 0.002719 0.070687
H158  H     H_    0.140470 0.344751 0.050664 0.167549
H159  H     H_    0.101836 0.303388 0.022053 0.144967
C179  C     C_3   0.127674 0.378544 0.971710 -0.311819
H160  H     H_    0.165537 0.407788 0.953245 0.224628
H161  H     H_    0.128596 0.366729 0.922923 0.231351
C180  C     C_3   0.063008 0.402473 0.029955 -0.994161
H162  H     H_    0.024349 0.374049 0.048603 0.272377
H163  H     H_    0.054836 0.436062 0.005586 0.267979
H164  H     H_    0.061484 0.415690 0.078599 0.272987
O73   O     O_3   0.690430 0.194466 0.949650 -0.631134
C181  C     C_3   0.722154 0.148992 0.910634 0.102125
H165  H     H_    0.710654 0.117867 0.950931 0.166338
H166  H     H_    0.774724 0.154199 0.872313 0.129111
C182  C     C_3   0.698240 0.132730 0.864723 -0.322604
H167  H     H_    0.646169 0.125316 0.902460 0.227379
H168  H     H_    0.706713 0.164391 0.826219 0.233709
C183  C     C_3   0.731922 0.084223 0.819531 -0.979124
H169  H     H_    0.783360 0.091970 0.777611 0.282640
H170  H     H_    0.711089 0.072028 0.790008 0.268237
H171  H     H_    0.726163 0.052404 0.856402 0.267632
O74   O     O_3   0.322187 0.735191 0.054646 -0.642508
C184  C     C_3   0.388338 0.735889 0.997489 0.109033
H172  H     H_    0.407691 0.774178 0.996929 0.155237
H173  H     H_    0.400587 0.729006 0.940950 0.142561
C185  C     C_3   0.421139 0.694789 0.013353 -0.340339
H174  H     H_    0.417841 0.705604 0.063977 0.222961
H175  H     H_    0.396672 0.657250 0.023708 0.228770
C186  C     C_3   0.490995 0.688712 0.948144 -0.977306
H176  H     H_    0.494776 0.672812 0.899224 0.263520
H177  H     H_    0.514878 0.661869 0.963569 0.270808
H178  H     H_    0.515680 0.726404 0.932888 0.275269
O75   O     O_3   0.305063 0.182370 0.045109 -0.644688
C187  C     C_3   0.263617 0.143425 0.094061 0.089674
H179  H     H_    0.235720 0.125668 0.075755 0.168289
H180  H     H_    0.230226 0.159693 0.150672 0.158962
C188  C     C_3   0.303076 0.101291 0.097433 -0.329691
H181  H     H_    0.337227 0.084959 0.040982 0.219143
H182  H     H_    0.330694 0.118214 0.116488 0.234969
C189  C     C_3   0.261063 0.058089 0.150334 -0.986275
H183  H     H_    0.226927 0.073364 0.207416 0.281137
H184  H     H_    0.291341 0.028580 0.151769 0.268306
H185  H     H_    0.234378 0.039515 0.131166 0.264241
O76   O     O_3   0.687027 0.767361 0.940286 -0.642127
C190  C     C_3   0.621309 0.775545 0.994216 0.074169
H186  H     H_    0.611200 0.799263 0.041681 0.176316
H187  H     H_    0.596819 0.737849 0.015419 0.148564
C191  C     C_3   0.594329 0.803901 0.957922 -0.320813
H188  H     H_    0.620417 0.840723 0.933797 0.221100
H189  H     H_    0.601351 0.780036 0.912115 0.226825
C192  C     C_3   0.523580 0.815638 0.013943 -0.998095
H190  H     H_    0.496502 0.779704 0.041073 0.271501
H191  H     H_    0.504843 0.833825 0.985042 0.266093
H192  H     H_    0.516381 0.842613 0.057099 0.270129
O77   O     O_3   0.370798 0.263962 0.367382 -0.627136
C193  C     C_3   0.393575 0.218121 0.325052 0.121701
H193  H     H_    0.364525 0.207616 0.304768 0.142567
H194  H     H_    0.392387 0.185507 0.358474 0.150464
C194  C     C_3   0.462294 0.226538 0.257744 -0.318780
H195  H     H_    0.463286 0.255752 0.220488 0.219582
H196  H     H_    0.490889 0.241433 0.276540 0.246637
C195  C     C_3   0.492327 0.176693 0.214479 -0.938235
H197  H     H_    0.492706 0.147239 0.250502 0.270667
H198  H     H_    0.542231 0.184041 0.166439 0.275764
H199  H     H_    0.465356 0.161711 0.193528 0.259425
O78   O     O_3   0.630194 0.729217 0.630546 -0.630735
C196  C     C_3   0.605360 0.772311 0.678511 0.120190
H200  H     H_    0.602922 0.806581 0.650061 0.149828
H201  H     H_    0.635109 0.781988 0.698147 0.145522
C197  C     C_3   0.538214 0.759553 0.746138 -0.320269
H202  H     H_    0.507926 0.749162 0.727583 0.238058
H203  H     H_    0.540154 0.725934 0.775733 0.219807
C198  C     C_3   0.508227 0.804995 0.799610 -0.964681
H204  H     H_    0.536276 0.814653 0.821418 0.252321
H205  H     H_    0.459188 0.794747 0.846931 0.290865
H206  H     H_    0.505782 0.839164 0.771289 0.276817
O79   O     O_3   0.628675 0.258915 0.633515 -0.625135
C199  C     C_3   0.610003 0.211973 0.673289 0.128297
H207  H     H_    0.641690 0.202031 0.690138 0.145262
H208  H     H_    0.611247 0.179879 0.639102 0.144379
C200  C     C_3   0.542078 0.217325 0.743499 -0.312935
H209  H     H_    0.539715 0.250020 0.777364 0.229053
H210  H     H_    0.509270 0.225590 0.727840 0.243438
C201  C     C_3   0.520430 0.168308 0.790135 -0.996930
H211  H     H_    0.523769 0.134801 0.756938 0.266955
H212  H     H_    0.470223 0.172587 0.839125 0.265321
H213  H     H_    0.550503 0.161012 0.809931 0.270897
O80   O     O_3   0.366809 0.716449 0.375455 -0.633365
C202  C     C_3   0.398429 0.755229 0.320841 0.111845
H214  H     H_    0.400050 0.792239 0.345168 0.150569
H215  H     H_    0.374144 0.761870 0.293509 0.149210
C203  C     C_3   0.466601 0.737525 0.262161 -0.317283
H216  H     H_    0.489784 0.726912 0.289615 0.231768
H217  H     H_    0.465799 0.702838 0.233370 0.215660
C204  C     C_3   0.505641 0.779546 0.205031 -0.964739
H218  H     H_    0.484525 0.789592 0.175077 0.258328
H219  H     H_    0.554883 0.765450 0.164360 0.260419
H220  H     H_    0.507673 0.814469 0.232470 0.284451
O81   O     O_3   0.869885 0.771087 0.369400 -0.626632
C205  C     C_3   0.895359 0.728411 0.320654 0.111283
H221  H     H_    0.864536 0.717334 0.302997 0.143128
H222  H     H_    0.900559 0.694634 0.347622 0.152839
C206  C     C_3   0.960942 0.742993 0.251478 -0.316548
H223  H     H_    0.956075 0.776500 0.223986 0.228267
H224  H     H_    0.992491 0.754308 0.267945 0.236427
C207  C     C_3   0.991556 0.698493 0.196301 -0.934806
H225  H     H_    0.999368 0.665201 0.221501 0.270028
H226  H     H_    0.038231 0.711042 0.146246 0.305162
H227  H     H_    0.960831 0.686461 0.179000 0.254148
O82   O     O_3   0.129375 0.235478 0.632349 -0.631236
C208  C     C_3   0.105954 0.280826 0.675717 0.122526
H228  H     H_    0.106847 0.313813 0.642999 0.152737
H229  H     H_    0.134657 0.291102 0.696521 0.140989
C209  C     C_3   0.037310 0.271537 0.742567 -0.312256
H230  H     H_    0.008954 0.257290 0.723112 0.245962
H231  H     H_    0.036485 0.241515 0.778809 0.216350
C210  C     C_3   0.006795 0.320661 0.787593 -0.974674
H232  H     H_    0.032865 0.334483 0.810268 0.261813
H233  H     H_    0.956702 0.312730 0.834417 0.257426
H234  H     H_    0.007016 0.351189 0.752404 0.276897
O83   O     O_3   0.132303 0.782254 0.625687 -0.627881
C211  C     C_3   0.102009 0.742966 0.679729 0.110137
H235  H     H_    0.128791 0.734957 0.703591 0.144257
H236  H     H_    0.098355 0.706725 0.655551 0.152094
C212  C     C_3   0.034908 0.760772 0.742258 -0.334612
H237  H     H_    0.038063 0.795501 0.769227 0.225913
H238  H     H_    0.008480 0.771290 0.718675 0.233604
C213  C     C_3   0.998194 0.718846 0.800670 -0.908709
H239  H     H_    0.992977 0.684208 0.775283 0.274754
H240  H     H_    0.949962 0.733167 0.845310 0.283312
H241  H     H_    0.023307 0.708149 0.825790 0.259090
O84   O     O_3   0.870882 0.237415 0.367167 -0.630938
C214  C     C_3   0.893771 0.283285 0.325046 0.123770
H242  H     H_    0.892887 0.315732 0.358517 0.152816
H243  H     H_    0.864723 0.294141 0.304908 0.140844
C215  C     C_3   0.962315 0.274536 0.257625 -0.310577
H244  H     H_    0.991035 0.259752 0.276311 0.246420
H245  H     H_    0.963049 0.245096 0.220761 0.217272
C216  C     C_3   0.992378 0.324119 0.213845 -0.978339
H246  H     H_    0.965855 0.338575 0.192050 0.262012
H247  H     H_    0.042361 0.316463 0.166478 0.257341
H248  H     H_    0.992388 0.354042 0.249607 0.276329
N9    N     N_3   0.265068 0.267520 0.364010 -0.422463
H249  H     H_    0.237022 0.299340 0.371805 0.182337
H250  H     H_    0.249767 0.235713 0.349548 0.206558
N10   N     N_3   0.736436 0.725734 0.633494 -0.425682
H251  H     H_    0.751035 0.756515 0.650510 0.202290
H252  H     H_    0.765694 0.694052 0.622382 0.181994
N11   N     N_3   0.734668 0.265761 0.636404 -0.424558
H253  H     H_    0.761970 0.297909 0.629415 0.182237
H254  H     H_    0.750642 0.234031 0.650155 0.205825
N12   N     N_3   0.261254 0.716003 0.371063 -0.426122
H255  H     H_    0.248419 0.745548 0.350256 0.197574
H256  H     H_    0.229744 0.685268 0.386645 0.182239
N13   N     N_3   0.763743 0.773818 0.366157 -0.428290
H257  H     H_    0.734478 0.805466 0.377133 0.181100
H258  H     H_    0.749205 0.742958 0.349186 0.202940
N14   N     N_3   0.234977 0.233303 0.636089 -0.424837
H259  H     H_    0.250145 0.265316 0.650362 0.206889
H260  H     H_    0.263084 0.201602 0.628566 0.181644
N15   N     N_3   0.238400 0.783766 0.629484 -0.428080
H261  H     H_    0.269845 0.814535 0.613996 0.180875
H262  H     H_    0.251311 0.754197 0.650183 0.197706
N16   N     N_3   0.765474 0.235799 0.363164 -0.424515
H263  H     H_    0.749979 0.268150 0.349920 0.208269
H264  H     H_    0.737876 0.204077 0.369416 0.183253

loop_
_geom_bond_atom_site_label_1
_geom_bond_atom_site_label_2
_ccdc_geom_bond_type
C202  C203  S    
C88   O56   S    
C186  H176  S    
C158  H111  S    
N5    H74   S    
N13   H257  S    
N3    H69   S    
C34   C42   A    
C207  H227  S    
C47   N15   S    
C166  C167  S    
O4    Zn8   S    
C35   O79   S    
C72   O40   A    
C128  C129  S    
C84   O34   A    
C90   C95   A    
N7    H78   S    
O51   Zn15  S    
C180  H162  S    
C144  H64   S    
C213  H241  S    
C2    O6    A    
O49   Zn13  S    
C5    C119  S    
C39   C47   A    
C175  H151  S    
C12   C104  S    
O36   Zn6   S    
C59   C66   A    
C87   C94   A    
C72   O16   A    
O60   C142  S    
C6    C120  S    
C159  H113  S    
C28   C116  T    
C91   C96   A    
C2    C116  S    
C211  C212  S    
C128  H25   S    
C149  H90   S    
C110  N6    S    
C133  H38   S    
C51   C74   S    
C80   O28   A    
N12   H255  S    
O18   Zn14  S    
C17   C98   S    
O52   Zn16  S    
C163  C164  S    
O1    Zn3   S    
C134  H39   S    
C131  H33   S    
C41   C49   A    
C161  H118  S    
O2    Zn12  S    
C179  H160  S    
C176  C177  S    
C198  H205  S    
C145  H82   S    
C58   H2    S    
C133  C134  S    
C214  H242  S    
C10   C102  S    
C62   H6    S    
O64   C154  S    
C216  H248  S    
C167  H133  S    
C20   C28   S    
C21   C29   S    
N9    H249  S    
C147  H85   S    
C131  C132  S    
C23   C31   S    
C15   C108  S    
C184  C185  S    
C126  H20   S    
C183  H171  S    
C9    O70   S    
C190  H187  S    
C82   O32   A    
C8    O52   A    
N7    H77   S    
C3    O47   A    
C142  C143  S    
O84   C214  S    
C13   C21   S    
C171  H141  S    
C102  O66   S    
C188  H182  S    
C60   C65   A    
C158  C159  S    
C206  H224  S    
C3    C113  S    
C141  H56   S    
C160  C161  S    
O23   Zn11  S    
C37   C45   A    
C166  H130  S    
C176  H153  S    
C91   O59   S    
N6    H75   S    
C71   O15   A    
C180  H164  S    
C9    C110  S    
C40   C48   A    
C66   C77   S    
C213  H239  S    
C11   C112  S    
C175  C176  S    
O3    Zn15  S    
O6    Zn4   S    
C13   C106  S    
C138  H49   S    
O67   C163  S    
C5    O9    A    
O80   C202  S    
C11   C103  S    
C168  H134  S    
O21   Zn9   S    
C38   O82   S    
C8    O12   A    
C17   C25   S    
C183  H169  S    
C89   C96   A    
O24   Zn12  S    
C36   C55   A    
C104  O68   S    
C160  H116  S    
N10   H251  S    
C37   C50   A    
O76   C190  S    
C20   C99   S    
C29   C117  T    
C10   C18   S    
C187  C188  S    
C130  C131  S    
C13   C97   S    
C182  H167  S    
C187  H179  S    
C79   O27   A    
C152  H97   S    
C125  H18   S    
C76   O20   A    
N1    H66   S    
C148  H88   S    
C134  C135  S    
O15   Zn11  S    
C103  C107  S    
C1    C115  S    
C196  H201  S    
C172  H144  S    
C161  C162  S    
O2    Zn10  S    
O58   C136  S    
C20   C108  S    
O3    Zn7   S    
C137  C138  S    
C156  H106  S    
C7    C117  S    
C201  H212  S    
O71   C175  S    
O38   Zn2   S    
C57   C66   A    
C192  H192  S    
C170  H139  S    
C90   C91   A    
C178  H159  S    
C186  H177  S    
C1    O45   A    
C208  H228  S    
C147  H87   S    
C45   N13   S    
C173  H146  S    
N3    H70   S    
C207  H226  S    
C205  H221  S    
C149  C150  S    
C136  H44   S    
C82   O30   A    
C140  C141  S    
C146  H84   S    
O66   C160  S    
C10   C109  S    
N9    H250  S    
O57   C133  S    
C76   O44   A    
C14   C105  S    
C103  O67   S    
O40   Zn4   S    
C174  H148  S    
C185  H174  S    
O1    Zn9   S    
C174  H149  S    
C44   N12   S    
C89   O57   S    
C35   C43   A    
C148  C149  S    
C68   C79   S    
C211  H236  S    
C200  C201  S    
C45   C53   A    
C71   O39   A    
C204  H218  S    
C122  H12   S    
O3    Zn13  S    
C1    O5    A    
C127  H23   S    
C163  H124  S    
C14   C98   S    
C160  H117  S    
C168  H136  S    
C174  H150  S    
C209  C210  S    
C210  H234  S    
C151  H95   S    
C126  H22   S    
C150  H93   S    
C189  H183  S    
C16   C100  S    
C164  C165  S    
C30   C118  T    
C105  N1    S    
C73   O17   A    
C214  H243  S    
C84   C95   S    
N2    H68   S    
C182  C183  S    
O10   Zn8   S    
C18   C106  S    
O77   C193  S    
C86   C93   A    
C79   O25   A    
C97   C109  S    
C58   C65   A    
C155  H105  S    
C178  H158  S    
C125  C126  S    
C162  H122  S    
C99   C111  S    
C192  H190  S    
C172  C173  S    
C194  H196  S    
C42   C50   A    
C21   C102  S    
O3    Zn5   S    
C185  H175  S    
N16   H263  S    
C156  H108  S    
C153  H100  S    
C193  H193  S    
C154  H103  S    
C169  H138  S    
O7    Zn1   S    
C200  H209  S    
C42   N10   S    
C159  H114  S    
C170  C171  S    
C155  C156  S    
C85   C88   A    
C9    C17   S    
C33   C54   A    
C202  H215  S    
C215  H244  S    
C22   C30   S    
C35   C56   A    
C173  C174  S    
C109  N5    S    
O74   C184  S    
C166  H131  S    
C189  H185  S    
C136  C137  S    
C21   C109  S    
C140  H53   S    
C128  H26   S    
C144  H63   S    
C40   C51   A    
C23   C111  S    
N14   H259  S    
C157  H110  S    
C197  C198  S    
C24   C103  S    
O12   Zn6   S    
C14   C22   S    
C175  H152  S    
C201  H211  S    
O69   C169  S    
C81   C94   S    
C185  C186  S    
C83   C96   S    
O1    Zn11  S    
C48   N16   S    
C205  H222  S    
O53   C121  S    
C212  C213  S    
C69   O37   A    
C38   C46   A    
C70   O38   A    
C203  H216  S    
O25   Zn13  S    
C123  H13   S    
C187  H180  S    
C56   C69   S    
C132  H36   S    
O8    Zn2   S    
C143  H60   S    
N12   H256  S    
C181  H165  S    
C181  H166  S    
C127  C128  S    
C27   C115  T    
C199  H207  S    
C215  C216  S    
C19   C107  S    
C165  H127  S    
C98   C110  S    
C205  C206  S    
C210  H232  S    
C18   C26   S    
C151  C152  S    
C161  H119  S    
O65   C157  S    
O59   C139  S    
C176  H154  S    
C38   C49   A    
O50   Zn14  S    
C11   C19   S    
C22   C101  S    
C106  N2    S    
C4    C114  S    
O82   C208  S    
O28   Zn16  S    
C208  C209  S    
C39   O83   S    
N4    H71   S    
C216  H247  S    
C177  H155  S    
C69   O13   A    
C162  H120  S    
O14   Zn10  S    
C124  C125  S    
C195  H197  S    
C147  H86   S    
C122  H11   S    
C184  H173  S    
C16   C107  S    
C63   C68   A    
O5    Zn3   S    
C54   C71   S    
C171  H143  S    
C135  H42   S    
O54   C124  S    
C22   C110  S    
C143  C144  S    
C24   C112  S    
N8    H80   S    
C18   C97   S    
O17   Zn13  S    
C4    O8    A    
C158  H112  S    
C82   C93   S    
C206  H223  S    
C6    O50   A    
N13   H258  S    
C141  H57   S    
C100  O64   S    
C127  H24   S    
N6    H76   S    
C40   O84   S    
C180  H163  S    
C59   H3    S    
C213  H240  S    
C81   O29   A    
C78   O24   A    
N11   H253  S    
O79   C199  S    
O13   Zn9   S    
C124  H16   S    
C77   O21   A    
O55   C127  S    
C108  N4    S    
C86   C87   A    
C57   C60   A    
O16   Zn12  S    
C165  H129  S    
C75   O19   A    
C58   C59   A    
C203  C204  S    
O75   C187  S    
C183  H170  S    
C61   C64   A    
O63   C151  S    
C62   C63   A    
C25   C113  T    
C23   C104  S    
C123  H15   S    
C198  H204  S    
C46   C54   A    
C64   H8    S    
C133  H37   S    
C130  H31   S    
C193  H194  S    
C46   N14   S    
C31   C119  T    
O46   Zn10  S    
C199  C200  S    
C101  O65   S    
C125  H19   S    
C100  C112  S    
N16   H264  S    
C134  H40   S    
C131  H32   S    
C86   O54   S    
C153  H101  S    
C104  C108  S    
C209  H230  S    
C34   O78   S    
C135  H41   S    
C152  H98   S    
C198  H206  S    
O73   C181  S    
C83   O35   A    
C145  H81   S    
C65   C78   S    
C142  H59   S    
C156  H107  S    
C74   O18   A    
C67   C80   S    
N14   H260  S    
C152  C153  S    
C19   C100  S    
C80   O26   A    
C167  H132  S    
C195  H199  S    
C33   C41   A    
C214  C215  S    
C173  H147  S    
O68   C166  S    
C150  H92   S    
O33   Zn7   S    
O2    Zn4   S    
C50   C75   S    
N2    H67   S    
C190  C191  S    
O34   Zn8   S    
C140  H54   S    
C43   C51   A    
C146  H83   S    
C33   O77   S    
C197  H203  S    
C3    O7    A    
O56   C130  S    
C126  H21   S    
O27   Zn15  S    
C188  C189  S    
O70   C172  S    
C34   C53   A    
C139  H52   S    
C4    O48   A    
C206  C207  S    
C141  H55   S    
O29   Zn3   S    
C53   C72   S    
O30   Zn4   S    
C164  H125  S    
N10   H252  S    
O9    Zn7   S    
C145  C146  S    
N4    H72   S    
C154  H102  S    
C200  H210  S    
C97   O61   S    
C81   O31   A    
N5    H73   S    
C12   C20   S    
C41   N9    S    
C212  H237  S    
C138  H50   S    
C77   O23   A    
C167  C168  S    
C24   C32   S    
C155  H104  S    
C8    C118  S    
C202  H214  S    
C148  H89   S    
O61   C145  S    
C197  H202  S    
C15   O76   S    
C168  H135  S    
N1    H65   S    
C62   C67   A    
C193  C194  S    
C98   O62   S    
C210  H233  S    
C164  H126  S    
C171  H142  S    
C139  C140  S    
O47   Zn11  S    
C189  H184  S    
O48   Zn12  S    
O22   Zn10  S    
C132  H35   S    
C60   H4    S    
C196  H200  S    
C182  H168  S    
C129  H29   S    
O72   C178  S    
C11   O72   S    
C124  H17   S    
O20   Zn16  S    
O39   Zn3   S    
C162  H121  S    
O19   Zn15  S    
C121  H9    S    
C87   O55   S    
C172  H145  S    
C19   C27   S    
C194  H195  S    
C84   O36   A    
C135  H43   S    
C15   C23   S    
C39   C52   A    
C83   O33   A    
C16   C24   S    
C12   O71   S    
O4    Zn14  S    
C169  C170  S    
O42   Zn6   S    
C191  H188  S    
C32   C120  T    
O32   Zn2   S    
C170  H140  S    
C107  N3    S    
N8    H79   S    
C178  C179  S    
C101  C105  S    
C186  H178  S    
C215  H245  S    
C70   O14   A    
C209  H231  S    
C179  C180  S    
C64   C67   A    
C207  H225  S    
C52   C73   S    
O2    Zn2   S    
C199  H208  S    
O4    Zn6   S    
O83   C211  S    
N15   H262  S    
C139  H51   S    
C146  C147  S    
C191  C192  S    
C99   O63   S    
C144  H62   S    
C90   O58   S    
C92   C95   A    
O31   Zn1   S    
C137  H47   S    
N11   H254  S    
C6    O10   A    
C190  H186  S    
C17   C105  S    
C85   C94   A    
C136  H45   S    
C188  H181  S    
C16   O75   S    
C137  H46   S    
C121  C122  S    
O81   C205  S    
C49   C76   S    
C7    O51   A    
C129  H27   S    
C89   C92   A    
C191  H189  S    
C212  H238  S    
C5    O49   A    
C203  H217  S    
C43   N11   S    
C149  H91   S    
C211  H235  S    
C142  H58   S    
C123  H14   S    
C157  H109  S    
C129  H28   S    
C204  H219  S    
C75   O43   A    
C122  C123  S    
C143  H61   S    
C204  H220  S    
C201  H213  S    
C92   O60   S    
C138  H48   S    
C163  H123  S    
C78   O22   A    
C47   C55   A    
C85   O53   S    
C26   C114  T    
C48   C56   A    
C112  N8    S    
O1    Zn1   S    
C88   C93   A    
C165  H128  S    
C37   O81   S    
C15   C99   S    
C121  H10   S    
C13   O74   S    
C150  H94   S    
C179  H161  S    
C157  C158  S    
O43   Zn7   S    
O35   Zn5   S    
C196  C197  S    
O37   Zn1   S    
O62   C148  S    
C181  C182  S    
O41   Zn5   S    
C208  H229  S    
O11   Zn5   S    
C2    O46   A    
C7    O11   A    
C61   C68   A    
C44   C52   A    
C216  H246  S    
C177  H156  S    
O44   Zn8   S    
C111  N7    S    
O45   Zn9   S    
O78   C196  S    
C192  H191  S    
C195  H198  S    
C102  C106  S    
C159  H115  S    
C184  H172  S    
C194  C195  S    
C74   O42   A    
C55   C70   S    
C36   C44   A    
C57   H1    S    
N15   H261  S    
O26   Zn14  S    
C151  H96   S    
C9    C101  S    
C153  H99   S    
C154  C155  S    
C130  H30   S    
O4    Zn16  S    
C14   O73   S    
C169  H137  S    
C61   H5    S    
C132  H34   S    
C73   O41   A    
C10   O69   S    
C12   C111  S    
C63   H7    S    
C177  H157  S    
C36   O80   S    
