data_mof_unit_4427.cif
_audit_creation_date              2012-12-10T17:16:50-0500
_audit_creation_method            fapswitch 2.2
_symmetry_space_group_name_H-M    P1
_symmetry_Int_Tables_number       1
_space_group_crystal_system       triclinic
_cell_length_a                    18.408832
_cell_length_b                    18.490369
_cell_length_c                    51.001813
_cell_angle_alpha                 90.410983
_cell_angle_beta                  90.263139
_cell_angle_gamma                 90.091687
_cell_volume                      17359.6552007

loop_
_atom_site_label
_atom_site_type_symbol
_atom_type_description
_atom_site_fract_x
_atom_site_fract_y
_atom_site_fract_z
_atom_type_partial_charge
C1    C     C_R   0.999842 0.498013 0.929226 0.918422
C2    C     C_R   0.499578 0.000442 0.929323 0.933040
C3    C     C_R   0.499439 0.000675 0.429379 0.921317
C4    C     C_R   0.999499 0.499403 0.429311 0.954504
C5    C     C_R   0.455650 0.945342 0.777676 -0.128776
C6    C     C_R   0.053192 0.517158 0.780478 -0.100347
C7    C     C_R   0.465529 0.077890 0.777423 -0.091135
C8    C     C_R   0.017162 0.389715 0.776908 -0.092439
C9    C     C_R   0.103171 0.490756 0.277373 -0.106752
C10   C     C_R   0.447307 0.070901 0.277672 -0.100428
C11   C     C_R   0.983189 0.547834 0.279513 -0.083622
C12   C     C_R   0.573825 0.029083 0.278322 -0.110732
C13   C     C_R   0.463415 0.010982 0.763687 -0.094416
C14   C     C_R   0.034780 0.456244 0.764870 -0.107432
C15   C     C_R   0.041727 0.520517 0.264614 -0.110296
C16   C     C_R   0.510831 0.049577 0.264096 -0.099286
C17   C     C_R   0.447016 0.879208 0.763614 0.150939
C18   C     C_R   0.067352 0.584442 0.768315 0.166314
C19   C     C_R   0.472134 0.143421 0.763358 0.159226
C20   C     C_R   0.006664 0.327154 0.761030 0.156366
C21   C     C_R   0.164777 0.470745 0.262368 0.159227
C22   C     C_R   0.387000 0.098453 0.263486 0.157697
C23   C     C_R   0.919079 0.571987 0.266804 0.161743
C24   C     C_R   0.636228 0.005127 0.264427 0.162051
C25   C     C_R   0.165009 0.482282 0.234974 0.169886
C26   C     C_R   0.389275 0.101514 0.235781 0.165906
C27   C     C_R   0.914180 0.569512 0.239204 0.159381
C28   C     C_R   0.634510 0.999375 0.236864 0.185724
C29   C     C_R   0.450352 0.878291 0.736011 0.203161
C30   C     C_R   0.053335 0.592739 0.741248 0.160556
C31   C     C_R   0.485321 0.141580 0.736138 0.152829
C32   C     C_R   0.017182 0.331020 0.733596 0.169776
C33   C     C_R   0.099932 0.502755 0.222003 -0.097525
C34   C     C_R   0.448296 0.069596 0.222220 -0.095562
C35   C     C_R   0.972924 0.541872 0.224336 -0.094303
C36   C     C_R   0.572062 0.021043 0.222617 -0.110335
C37   C     C_R   0.459805 0.943767 0.722053 -0.104479
C38   C     C_R   0.037974 0.531039 0.725423 -0.098910
C39   C     C_R   0.480944 0.075045 0.722194 -0.094621
C40   C     C_R   0.025214 0.399384 0.721429 -0.098410
C41   C     C_R   0.038271 0.521814 0.236991 -0.108019
C42   C     C_R   0.510553 0.047022 0.236328 -0.104788
C43   C     C_R   0.467986 0.009913 0.735991 -0.097253
C44   C     C_R   0.032927 0.462161 0.737225 -0.107478
C45   C     C_R   0.093809 0.503704 0.194355 0.590441
C46   C     C_R   0.446436 0.058533 0.194782 0.577804
C47   C     C_R   0.967703 0.531534 0.197033 0.590454
C48   C     C_R   0.568888 0.017301 0.194892 0.590386
C49   C     C_R   0.459465 0.945739 0.694354 0.587643
C50   C     C_R   0.028426 0.535726 0.697958 0.589070
C51   C     C_R   0.487332 0.071572 0.694606 0.606512
C52   C     C_R   0.024257 0.407348 0.693824 0.589100
C53   C     C_R   0.995787 0.570594 0.140431 0.443878
C54   C     C_R   0.499518 0.955916 0.142529 0.436457
C55   C     C_R   0.037780 0.446237 0.141218 0.444449
C56   C     C_R   0.503616 0.086786 0.137743 0.444438
C57   C     C_R   0.421226 0.024413 0.638140 0.439769
C58   C     C_R   0.955925 0.452152 0.641307 0.444426
C59   C     C_R   0.548163 0.988553 0.641856 0.416901
C60   C     C_R   0.069442 0.519119 0.640383 0.451857
C61   C     C_R   0.981328 0.564380 0.113597 0.049416
C62   C     C_R   0.498317 0.947416 0.115108 0.046456
C63   C     C_R   0.033552 0.442628 0.113785 0.032623
C64   C     C_R   0.500818 0.079125 0.110289 0.039890
C65   C     C_R   0.425321 0.019653 0.610583 0.031659
C66   C     C_R   0.951161 0.455660 0.613844 0.035996
C67   C     C_R   0.554663 0.988949 0.614391 0.040166
C68   C     C_R   0.059843 0.531721 0.613548 0.040847
C69   C     C_R   0.003862 0.501668 0.099479 -0.259685
C70   C     C_R   0.500094 0.009021 0.098902 -0.234561
C71   C     C_R   0.492613 0.002036 0.598731 -0.225313
C72   C     C_R   0.002483 0.497005 0.599550 -0.255555
C73   C     C_R   0.000153 0.500262 0.070368 0.855980
C74   C     C_R   0.500071 0.000597 0.070206 0.836665
C75   C     C_R   0.498670 0.000418 0.570094 0.828560
C76   C     C_R   0.000330 0.499713 0.570411 0.863427
C77   C     C_R   0.021465 0.510946 0.154496 -0.030919
C78   C     C_R   0.503366 0.025386 0.153770 0.008884
C79   C     C_R   0.481762 0.006542 0.653508 0.049934
C80   C     C_R   0.016409 0.481510 0.654624 -0.040437
C81   C     C_R   0.541023 0.027547 0.857479 0.354676
C82   C     C_R   0.961714 0.500932 0.856250 0.352674
C83   C     C_R   0.411871 0.003021 0.862145 0.414238
C84   C     C_R   0.050131 0.406147 0.865016 0.374070
C85   C     C_R   0.093254 0.520781 0.364456 0.391010
C86   C     C_R   0.486041 0.092331 0.363810 0.406191
C87   C     C_R   0.973879 0.468984 0.356470 0.379414
C88   C     C_R   0.513766 0.964290 0.356838 0.408644
C89   C     C_R   0.551282 0.018429 0.884706 0.258391
C90   C     C_R   0.961294 0.520178 0.882787 0.302853
C91   C     C_R   0.419667 0.004864 0.889469 0.267872
C92   C     C_R   0.039049 0.417261 0.892279 0.268710
C93   C     C_R   0.082269 0.511547 0.391419 0.277803
C94   C     C_R   0.480562 0.080252 0.390921 0.281649
C95   C     C_R   0.957149 0.475358 0.383232 0.293074
C96   C     C_R   0.509559 0.952510 0.383875 0.298816
C97   C     C_R   0.490508 0.004164 0.900705 -0.353817
C98   C     C_R   0.999738 0.478574 0.901058 -0.367064
C99   C     C_R   0.011997 0.497151 0.400907 -0.376968
C100  C     C_R   0.497349 0.011271 0.401015 -0.385095
C101  C     C_R   0.472629 0.013626 0.846196 -0.003169
C102  C     C_R   0.011987 0.449697 0.847047 -0.025999
C103  C     C_R   0.038500 0.499352 0.346770 -0.077444
C104  C     C_R   0.503780 0.034436 0.346683 -0.077193
C105  C     C_R   0.862990 0.642859 0.998163 0.870522
C106  C     C_R   0.360302 0.859379 0.999907 0.913960
C107  C     C_R   0.138810 0.358187 0.998546 0.869961
C108  C     C_R   0.641756 0.138837 0.999296 0.878621
C109  C     C_R   0.139554 0.640509 0.999423 0.939785
C110  C     C_R   0.640689 0.859560 0.999058 0.864912
C111  C     C_R   0.856715 0.362920 0.001007 0.850248
C112  C     C_R   0.361720 0.142194 0.001200 0.885064
C113  C     C_R   0.360618 0.141905 0.499064 0.860995
C114  C     C_R   0.856994 0.363120 0.498061 0.881614
C115  C     C_R   0.639988 0.859666 0.499634 0.892376
C116  C     C_R   0.142869 0.636941 0.498492 0.877704
C117  C     C_R   0.639933 0.140891 0.498952 0.865111
C118  C     C_R   0.135882 0.355891 0.501336 0.870904
C119  C     C_R   0.357141 0.861620 0.500056 0.858335
C120  C     C_R   0.859170 0.639161 0.499172 0.903852
C121  C     C_R   0.163819 0.728798 0.951502 0.147732
C122  C     C_R   0.391986 0.304488 0.999407 0.152059
C123  C     C_R   0.715066 0.369546 0.969663 0.223982
C124  C     C_R   0.642622 0.733288 0.956594 0.175962
C125  C     C_R   0.773467 0.665550 0.951143 0.191162
C126  C     C_R   0.683264 0.227841 0.952538 0.189128
C127  C     C_R   0.282406 0.369294 0.969168 0.173877
C128  C     C_R   0.267461 0.839605 0.953053 0.129973
C129  C     C_R   0.756509 0.147798 0.454716 0.192615
C130  C     C_R   0.792145 0.686845 0.448737 0.171712
C131  C     C_R   0.208948 0.864639 0.464382 0.114891
C132  C     C_R   0.113108 0.194755 0.477771 0.141277
C133  C     C_R   0.246211 0.154344 0.457753 0.169243
C134  C     C_R   0.171710 0.723430 0.451912 0.167663
C135  C     C_R   0.683634 0.791419 0.449360 0.149888
C136  C     C_R   0.830807 0.274976 0.450057 0.165773
C137  C     C_R   0.185454 0.762485 0.928068 0.155434
C138  C     C_R   0.405979 0.370672 0.986397 0.161577
C139  C     C_R   0.684316 0.357974 0.944447 0.159966
C140  C     C_R   0.645816 0.668117 0.941976 0.137118
C141  C     C_R   0.714420 0.641073 0.936026 0.113260
C142  C     C_R   0.674355 0.286527 0.935057 0.094252
C143  C     C_R   0.353202 0.398832 0.969291 0.118379
C144  C     C_R   0.237152 0.817867 0.928796 0.129041
C145  C     C_R   0.822050 0.147837 0.440446 0.154726
C146  C     C_R   0.774807 0.723899 0.425459 0.142190
C147  C     C_R   0.151061 0.850340 0.446334 0.145536
C148  C     C_R   0.119499 0.129390 0.463541 0.170912
C149  C     C_R   0.182199 0.119928 0.448572 0.122123
C150  C     C_R   0.142076 0.779583 0.437066 0.169583
C151  C     C_R   0.719641 0.775690 0.425665 0.116375
C152  C     C_R   0.850453 0.215553 0.434056 0.112801
C153  C     C_R   0.259129 0.794932 0.975530 -0.065443
C154  C     C_R   0.265276 0.314335 0.987323 -0.090302
C155  C     C_R   0.707093 0.242560 0.978550 -0.061919
C156  C     C_R   0.760064 0.703217 0.974841 -0.089770
C157  C     C_R   0.698478 0.748494 0.976129 -0.066331
C158  C     C_R   0.740378 0.309085 0.983597 -0.141181
C159  C     C_R   0.322807 0.271798 0.996433 -0.089909
C160  C     C_R   0.205264 0.739581 0.975025 -0.071877
C161  C     C_R   0.793503 0.262102 0.473920 -0.072680
C162  C     C_R   0.716419 0.771196 0.473669 -0.067355
C163  C     C_R   0.203236 0.739606 0.476539 -0.088407
C164  C     C_R   0.243550 0.193396 0.481728 -0.069518
C165  C     C_R   0.177960 0.228910 0.487604 -0.072819
C166  C     C_R   0.237984 0.806624 0.480351 -0.063903
C167  C     C_R   0.771248 0.717066 0.473462 -0.068660
C168  C     C_R   0.746492 0.201653 0.475032 -0.073079
C169  C     C_R   0.193779 0.698215 0.998216 -0.244623
C170  C     C_R   0.307360 0.200823 0.004542 -0.221858
C171  C     C_R   0.793751 0.313308 0.003599 -0.281232
C172  C     C_R   0.698867 0.804674 0.996306 -0.252911
C173  C     C_R   0.813349 0.704599 0.994736 -0.211601
C174  C     C_R   0.699320 0.194334 0.999759 -0.239774
C175  C     C_R   0.194067 0.300078 0.996852 -0.220642
C176  C     C_R   0.301778 0.805520 0.998699 -0.239891
C177  C     C_R   0.694097 0.199481 0.496159 -0.252109
C178  C     C_R   0.801504 0.693585 0.497892 -0.246164
C179  C     C_R   0.296500 0.808060 0.499808 -0.255893
C180  C     C_R   0.182370 0.290963 0.504497 -0.269580
C181  C     C_R   0.302709 0.197908 0.499547 -0.235778
C182  C     C_R   0.204281 0.687465 0.496263 -0.197683
C183  C     C_R   0.692618 0.799956 0.498150 -0.237306
C184  C     C_R   0.794691 0.313710 0.494526 -0.218420
C185  C     C_R   0.236292 0.709868 0.020832 0.365710
C186  C     C_R   0.236052 0.184123 0.013365 0.335522
C187  C     C_R   0.790676 0.263259 0.024337 0.384362
C188  C     C_R   0.759537 0.810946 0.013767 0.350613
C189  C     C_R   0.818740 0.764074 0.011591 0.349535
C190  C     C_R   0.740904 0.205817 0.022964 0.367102
C191  C     C_R   0.179091 0.233715 0.009216 0.369084
C192  C     C_R   0.289908 0.763125 0.021105 0.369680
C193  C     C_R   0.691909 0.256725 0.514943 0.361256
C194  C     C_R   0.776670 0.722540 0.521829 0.366268
C195  C     C_R   0.303675 0.748981 0.517597 0.348431
C196  C     C_R   0.238716 0.293565 0.523382 0.361100
C197  C     C_R   0.298803 0.247437 0.520899 0.372509
C198  C     C_R   0.259442 0.687812 0.515106 0.352504
C199  C     C_R   0.719681 0.772134 0.521883 0.362427
C200  C     C_R   0.737907 0.316433 0.512640 0.345276
C201  C     C_R   0.463280 0.076948 0.805076 0.577001
C202  C     C_R   0.010187 0.388465 0.804577 0.577635
C203  C     C_R   0.459338 0.948252 0.805378 0.626458
C204  C     C_R   0.053311 0.509677 0.808013 0.640117
C205  C     C_R   0.990735 0.549871 0.306948 0.602295
C206  C     C_R   0.571384 0.032245 0.306058 0.578041
C207  C     C_R   0.100400 0.482144 0.304914 0.592336
C208  C     C_R   0.445855 0.063031 0.305224 0.558595
N1    N     N_R   0.464347 0.013023 0.818168 -0.288537
N2    N     N_R   0.027983 0.447834 0.819341 -0.295301
N3    N     N_R   0.044857 0.511908 0.318996 -0.316651
N4    N     N_R   0.507404 0.045119 0.318699 -0.322391
N5    N     N_R   0.028016 0.515516 0.182631 -0.328280
N6    N     N_R   0.506262 0.033842 0.181855 -0.313503
N7    N     N_R   0.476180 0.007973 0.681565 -0.299627
N8    N     N_R   0.023293 0.474584 0.682803 -0.329036
O1    O     O_3   0.000000 0.500000 0.999730 -0.485812
O2    O     O_3   0.500000 0.000000 0.999730 -0.493202
O3    O     O_3   0.500000 0.000000 0.499730 -0.492769
O4    O     O_3   1.000000 0.500000 0.499730 -0.487140
O5    O     O_R   0.061020 0.500000 0.941690 -0.610595
O6    O     O_R   0.500000 0.061020 0.941690 -0.658230
O7    O     O_R   0.938980 0.500000 0.941690 -0.654005
O8    O     O_R   0.500000 0.938980 0.941690 -0.642249
O9    O     O_R   0.561020 0.000000 0.441690 -0.651310
O10   O     O_R   0.000000 0.561020 0.441690 -0.650893
O11   O     O_R   0.438980 0.000000 0.441690 -0.663194
O12   O     O_R   0.000000 0.438980 0.441690 -0.665542
O13   O     O_R   0.000000 0.560630 0.057780 -0.655849
O14   O     O_R   0.439370 0.000000 0.057780 -0.647142
O15   O     O_R   0.000000 0.439370 0.057780 -0.666211
O16   O     O_R   0.560630 0.000000 0.057780 -0.664648
O17   O     O_R   0.500000 0.060630 0.557780 -0.672278
O18   O     O_R   0.939370 0.500000 0.557780 -0.658868
O19   O     O_R   0.500000 0.939370 0.557780 -0.650347
O20   O     O_R   0.060630 0.500000 0.557780 -0.670262
O21   O     O_R   0.854090 0.585380 0.984510 -0.665067
O22   O     O_R   0.414620 0.854090 0.984510 -0.661096
O23   O     O_R   0.145910 0.414620 0.984510 -0.632934
O24   O     O_R   0.585380 0.145910 0.984510 -0.649867
O25   O     O_R   0.145910 0.585380 0.984510 -0.658679
O26   O     O_R   0.585380 0.854090 0.984510 -0.634715
O27   O     O_R   0.854090 0.414620 0.984510 -0.646768
O28   O     O_R   0.414620 0.145910 0.984510 -0.651903
O29   O     O_R   0.354090 0.085380 0.484510 -0.658562
O30   O     O_R   0.914620 0.354090 0.484510 -0.661267
O31   O     O_R   0.645910 0.914620 0.484510 -0.653497
O32   O     O_R   0.085380 0.645910 0.484510 -0.651414
O33   O     O_R   0.645910 0.085380 0.484510 -0.654535
O34   O     O_R   0.085380 0.354090 0.484510 -0.630523
O35   O     O_R   0.354090 0.914620 0.484510 -0.632115
O36   O     O_R   0.914620 0.645910 0.484510 -0.643072
O37   O     O_R   0.085720 0.353770 0.014950 -0.625291
O38   O     O_R   0.646230 0.085720 0.014950 -0.596118
O39   O     O_R   0.914280 0.646230 0.014950 -0.627017
O40   O     O_R   0.353770 0.914280 0.014950 -0.621541
O41   O     O_R   0.914280 0.353770 0.014950 -0.625725
O42   O     O_R   0.353770 0.085720 0.014950 -0.624864
O43   O     O_R   0.085720 0.646230 0.014950 -0.626550
O44   O     O_R   0.646230 0.914280 0.014950 -0.591339
O45   O     O_R   0.585720 0.853770 0.514950 -0.592191
O46   O     O_R   0.146230 0.585720 0.514950 -0.622787
O47   O     O_R   0.414280 0.146230 0.514950 -0.600484
O48   O     O_R   0.853770 0.414280 0.514950 -0.623937
O49   O     O_R   0.414280 0.853770 0.514950 -0.586239
O50   O     O_R   0.853770 0.585720 0.514950 -0.618824
O51   O     O_R   0.585720 0.146230 0.514950 -0.586191
O52   O     O_R   0.146230 0.414280 0.514950 -0.608345
O53   O     O_2   0.461014 0.139047 0.819032 -0.585940
O54   O     O_2   0.984097 0.329499 0.816703 -0.576870
O55   O     O_2   0.459837 0.887295 0.819679 -0.565877
O56   O     O_2   0.075560 0.564630 0.823662 -0.541967
O57   O     O_2   0.944211 0.588854 0.321744 -0.551527
O58   O     O_2   0.631823 0.022283 0.320568 -0.567660
O59   O     O_2   0.151500 0.443432 0.317537 -0.515917
O60   O     O_2   0.383138 0.070714 0.318529 -0.514507
O61   O     O_2   0.152329 0.491555 0.179144 -0.513195
O62   O     O_2   0.384758 0.070215 0.181059 -0.540679
O63   O     O_2   0.902571 0.535395 0.184864 -0.521453
O64   O     O_2   0.627660 0.997661 0.180856 -0.542105
O65   O     O_2   0.441468 0.886633 0.680080 -0.555646
O66   O     O_2   0.023853 0.600769 0.686280 -0.512389
O67   O     O_2   0.503356 0.131077 0.680623 -0.560209
O68   O     O_2   0.023357 0.348698 0.677956 -0.515421
Zn1   Zn    Zn3+2 0.000000 0.586680 0.021470 0.949818
Zn2   Zn    Zn3+2 0.413320 0.000000 0.021470 0.950988
Zn3   Zn    Zn3+2 0.000000 0.413320 0.021470 0.937748
Zn4   Zn    Zn3+2 0.586680 0.000000 0.021470 0.979292
Zn5   Zn    Zn3+2 0.500000 0.086680 0.521470 0.969186
Zn6   Zn    Zn3+2 0.913320 0.500000 0.521470 0.955070
Zn7   Zn    Zn3+2 0.500000 0.913320 0.521470 0.986797
Zn8   Zn    Zn3+2 0.086680 0.500000 0.521470 0.954942
Zn9   Zn    Zn3+2 0.913510 0.500000 0.977990 0.928222
Zn10  Zn    Zn3+2 0.500000 0.913510 0.977990 0.948951
Zn11  Zn    Zn3+2 0.086490 0.500000 0.977990 0.972739
Zn12  Zn    Zn3+2 0.500000 0.086490 0.977990 0.937177
Zn13  Zn    Zn3+2 0.413510 0.000000 0.477990 0.927555
Zn14  Zn    Zn3+2 0.000000 0.413510 0.477990 0.929877
Zn15  Zn    Zn3+2 0.586490 0.000000 0.477990 0.936145
Zn16  Zn    Zn3+2 0.000000 0.586490 0.477990 0.954689
O69   O     O_3   0.222804 0.671816 0.043638 -0.562389
C209  C     C_3   0.258329 0.604084 0.042434 0.104706
H1    H     H_    0.317793 0.610640 0.039677 0.130150
H2    H     H_    0.237042 0.569806 0.026150 0.111495
C210  C     C_3   0.245333 0.563919 0.067915 -0.818185
H3    H     H_    0.186154 0.555373 0.070787 0.249203
H4    H     H_    0.272744 0.510480 0.067221 0.195251
H5    H     H_    0.267340 0.595667 0.084729 0.263536
O70   O     O_3   0.220536 0.118037 0.024697 -0.582356
C211  C     C_3   0.243946 0.119413 0.051284 0.103742
H6    H     H_    0.209845 0.155762 0.063409 0.086829
H7    H     H_    0.300759 0.138833 0.053540 0.146604
C212  C     C_3   0.239051 0.043534 0.062475 -0.726239
H8    H     H_    0.273934 0.005960 0.051066 0.291250
H9    H     H_    0.257664 0.043992 0.083220 0.195370
H10   H     H_    0.181991 0.024044 0.061607 0.234279
O71   O     O_3   0.836360 0.268200 0.045988 -0.567166
C213  C     C_3   0.816910 0.328490 0.061799 0.126094
H11   H     H_    0.757402 0.339677 0.061740 0.075235
H12   H     H_    0.845021 0.378048 0.055064 0.149113
C214  C     C_3   0.840718 0.314613 0.089916 -0.832820
H13   H     H_    0.900097 0.304453 0.090672 0.247597
H14   H     H_    0.828148 0.362449 0.102373 0.200877
H15   H     H_    0.811748 0.266741 0.097748 0.253556
O72   O     O_3   0.763773 0.865973 0.032232 -0.556738
C215  C     C_3   0.730989 0.842126 0.055729 0.092238
H16   H     H_    0.755703 0.791130 0.062962 0.077787
H17   H     H_    0.671962 0.831886 0.052860 0.130952
C216  C     C_3   0.740825 0.900245 0.076745 -0.764366
H18   H     H_    0.708653 0.948719 0.071483 0.272156
H19   H     H_    0.722315 0.879788 0.096001 0.199662
H20   H     H_    0.798900 0.915809 0.078543 0.248011
O73   O     O_3   0.887611 0.786158 0.019735 -0.569675
C217  C     C_3   0.896780 0.780221 0.047114 0.156456
H21   H     H_    0.869780 0.731253 0.055114 0.108299
H22   H     H_    0.876284 0.829547 0.056973 0.181095
C218  C     C_3   0.977549 0.776212 0.053440 -0.771898
H23   H     H_    0.006500 0.822808 0.044644 0.258253
H24   H     H_    0.985840 0.777922 0.075014 0.185799
H25   H     H_    0.000863 0.725270 0.045619 0.292331
O74   O     O_3   0.739537 0.156552 0.043261 -0.543008
C219  C     C_3   0.688000 0.178980 0.062060 0.150261
H26   H     H_    0.632159 0.178557 0.053638 0.102164
H27   H     H_    0.699873 0.234056 0.069670 0.119936
C220  C     C_3   0.690479 0.127364 0.085104 -0.779019
H28   H     H_    0.746103 0.126048 0.093609 0.254255
H29   H     H_    0.652076 0.145447 0.100455 0.182256
H30   H     H_    0.674967 0.072185 0.078545 0.269519
O75   O     O_3   0.106733 0.213274 0.012296 -0.580427
C221  C     C_3   0.089385 0.201794 0.038926 0.114227
H31   H     H_    0.121214 0.237232 0.052527 0.098410
H32   H     H_    0.097766 0.143976 0.043707 0.186786
C222  C     C_3   0.009260 0.217433 0.043464 -0.678427
H33   H     H_    0.975329 0.189245 0.028490 0.271374
H34   H     H_    0.993268 0.198408 0.063224 0.188793
H35   H     H_    0.999145 0.276358 0.042615 0.291995
O76   O     O_3   0.328032 0.775470 0.044236 -0.569529
C223  C     C_3   0.398860 0.745995 0.042486 0.102396
H36   H     H_    0.438016 0.790016 0.038098 0.126842
H37   H     H_    0.404673 0.703024 0.027128 0.092396
C224  C     C_3   0.419853 0.713466 0.068787 -0.817187
H38   H     H_    0.384286 0.666877 0.073367 0.255428
H39   H     H_    0.477019 0.694515 0.068142 0.191764
H40   H     H_    0.414073 0.754302 0.084659 0.268795
O77   O     O_3   0.643328 0.255793 0.535583 -0.557548
C225  C     C_3   0.675987 0.218862 0.556856 0.089802
H41   H     H_    0.730202 0.241896 0.561978 0.082607
H42   H     H_    0.683375 0.160482 0.552160 0.128986
C226  C     C_3   0.627616 0.225417 0.580901 -0.799309
H43   H     H_    0.579435 0.189952 0.578535 0.259976
H44   H     H_    0.658102 0.208600 0.598667 0.206436
H45   H     H_    0.609282 0.282061 0.583757 0.253218
O78   O     O_3   0.804451 0.699603 0.545783 -0.561417
C227  C     C_3   0.875070 0.728745 0.549886 0.110440
H46   H     H_    0.880837 0.784943 0.542386 0.087408
H47   H     H_    0.916692 0.694557 0.540243 0.127411
C228  C     C_3   0.892827 0.729326 0.579047 -0.832768
H48   H     H_    0.887706 0.673914 0.587124 0.264308
H49   H     H_    0.949344 0.748717 0.582135 0.200441
H50   H     H_    0.855849 0.766323 0.589694 0.249775
O79   O     O_3   0.357694 0.747650 0.536553 -0.556407
C229  C     C_3   0.334397 0.788297 0.558582 0.082336
H51   H     H_    0.282264 0.767155 0.566477 0.087182
H52   H     H_    0.326444 0.846099 0.553483 0.130703
C230  C     C_3   0.392023 0.783717 0.580024 -0.744431
H53   H     H_    0.443526 0.808369 0.573182 0.283997
H54   H     H_    0.373557 0.812804 0.597889 0.202026
H55   H     H_    0.402222 0.726361 0.585148 0.240639
O80   O     O_3   0.236886 0.341934 0.544319 -0.562198
C231  C     C_3   0.181106 0.320980 0.561863 0.132410
H56   H     H_    0.184542 0.262490 0.566840 0.082993
H57   H     H_    0.126334 0.331099 0.553439 0.133167
C232  C     C_3   0.187587 0.364704 0.587162 -0.846441
H58   H     H_    0.178555 0.422856 0.583162 0.254737
H59   H     H_    0.145958 0.346402 0.601357 0.206100
H60   H     H_    0.242335 0.357525 0.595985 0.248438
O81   O     O_3   0.357702 0.257481 0.537542 -0.541853
C233  C     C_3   0.346051 0.220025 0.561208 0.143203
H61   H     H_    0.327326 0.163456 0.557610 0.092987
H62   H     H_    0.305958 0.248577 0.573600 0.151988
C234  C     C_3   0.416922 0.217819 0.576544 -0.759564
H63   H     H_    0.434272 0.273554 0.581928 0.250482
H64   H     H_    0.409943 0.185908 0.594713 0.178940
H65   H     H_    0.459558 0.192568 0.564307 0.297379
O82   O     O_3   0.282301 0.621977 0.525162 -0.555423
C235  C     C_3   0.269895 0.617433 0.552364 0.135592
H66   H     H_    0.216505 0.640855 0.558079 0.106120
H67   H     H_    0.314242 0.644476 0.563389 0.180096
C236  C     C_3   0.271736 0.538162 0.560146 -0.726442
H68   H     H_    0.323812 0.513252 0.553929 0.274744
H69   H     H_    0.267202 0.533332 0.581764 0.170953
H70   H     H_    0.226185 0.508498 0.550610 0.294710
O83   O     O_3   0.684395 0.786586 0.545229 -0.552487
C237  C     C_3   0.720102 0.842417 0.559212 0.153589
H71   H     H_    0.695870 0.895181 0.553760 0.103849
H72   H     H_    0.779432 0.845750 0.555455 0.107235
C238  C     C_3   0.709252 0.829531 0.588367 -0.800785
H73   H     H_    0.730925 0.775753 0.593848 0.270697
H74   H     H_    0.737852 0.871949 0.599982 0.204118
H75   H     H_    0.650445 0.830227 0.593087 0.251170
O84   O     O_3   0.717141 0.383374 0.522736 -0.564696
C239  C     C_3   0.729449 0.388534 0.550019 0.149560
H76   H     H_    0.781223 0.362340 0.556062 0.108054
H77   H     H_    0.683295 0.364653 0.560737 0.183560
C240  C     C_3   0.732466 0.468056 0.557935 -0.742168
H78   H     H_    0.682305 0.496039 0.551365 0.263207
H79   H     H_    0.736693 0.473064 0.579596 0.179033
H80   H     H_    0.780206 0.494740 0.548977 0.294348
N9    N     N_2   0.099046 0.686712 0.951443 -0.306080
H81   H     H_    0.091093 0.653851 0.935298 0.219399
C241  C     C_3   0.035028 0.726321 0.959338 -0.772604
H82   H     H_    0.023256 0.769873 0.945074 0.221843
H83   H     H_    0.043006 0.751043 0.979060 0.270723
H84   H     H_    0.988118 0.688703 0.960330 0.245691
N10   N     N_2   0.435796 0.282999 0.021088 -0.323779
H85   H     H_    0.433954 0.318100 0.036875 0.216100
C242  C     C_3   0.507212 0.254742 0.015706 -0.760210
H86   H     H_    0.517550 0.252830 0.994297 0.271981
H87   H     H_    0.511295 0.199606 0.024015 0.225901
H88   H     H_    0.549455 0.289242 0.025175 0.194204
N11   N     N_2   0.703250 0.435076 0.984179 -0.309343
H89   H     H_    0.715129 0.434120 0.003968 0.201392
C243  C     C_3   0.714146 0.504071 0.971960 -0.657521
H90   H     H_    0.721950 0.546291 0.987294 0.207476
H91   H     H_    0.664870 0.519350 0.960911 0.254810
H92   H     H_    0.762391 0.502373 0.959028 0.269230
N12   N     N_2   0.599668 0.788150 0.945001 -0.230099
H93   H     H_    0.546480 0.773911 0.941184 0.241671
C244  C     C_3   0.633956 0.823323 0.923136 -0.800184
H94   H     H_    0.597877 0.866739 0.915923 0.244673
H95   H     H_    0.643022 0.784400 0.906790 0.215631
H96   H     H_    0.686933 0.846624 0.929429 0.234995
N13   N     N_2   0.843894 0.670626 0.939920 -0.285305
H97   H     H_    0.855670 0.631937 0.926079 0.285008
C245  C     C_3   0.860557 0.743414 0.931314 -0.812900
H98   H     H_    0.915070 0.745572 0.922534 0.235038
H99   H     H_    0.860321 0.781847 0.948153 0.266396
H100  H     H_    0.820320 0.761390 0.916413 0.234789
N14   N     N_2   0.675984 0.154756 0.943571 -0.272203
H101  H     H_    0.644468 0.146350 0.927139 0.269227
C246  C     C_3   0.742638 0.113244 0.943295 -0.758112
H102  H     H_    0.730411 0.056370 0.937827 0.246133
H103  H     H_    0.768728 0.112860 0.962943 0.246297
H104  H     H_    0.781237 0.136171 0.928891 0.224604
N15   N     N_2   0.235148 0.381673 0.947427 -0.237144
H105  H     H_    0.238708 0.432018 0.939025 0.241100
C247  C     C_3   0.235076 0.323329 0.928326 -0.719740
H106  H     H_    0.211225 0.273821 0.936954 0.239068
H107  H     H_    0.291245 0.311197 0.921756 0.215680
H108  H     H_    0.202708 0.338813 0.910898 0.281841
N16   N     N_2   0.298207 0.910067 0.955631 -0.310572
H109  H     H_    0.326899 0.928631 0.939883 0.265084
C248  C     C_3   0.249880 0.963424 0.966983 -0.696710
H110  H     H_    0.279544 0.015071 0.970082 0.229450
H111  H     H_    0.229506 0.945110 0.986299 0.261310
H112  H     H_    0.202777 0.972983 0.953820 0.221530
N17   N     N_2   0.696775 0.113484 0.441871 -0.241748
H113  H     H_    0.703574 0.058475 0.439593 0.260009
C249  C     C_3   0.675574 0.146983 0.417418 -0.867397
H114  H     H_    0.633724 0.113311 0.407510 0.225913
H115  H     H_    0.721137 0.150060 0.403498 0.235765
H116  H     H_    0.655846 0.202746 0.421248 0.244204
N18   N     N_2   0.824765 0.617164 0.447063 -0.289756
H117  H     H_    0.858454 0.607481 0.431392 0.229509
C250  C     C_3   0.776646 0.557574 0.452944 -0.795674
H118  H     H_    0.809274 0.507552 0.454997 0.246728
H119  H     H_    0.735669 0.550833 0.437068 0.221933
H120  H     H_    0.747758 0.566737 0.471737 0.260935
N19   N     N_2   0.238355 0.935159 0.464425 -0.266093
H121  H     H_    0.204217 0.975402 0.470910 0.211587
C251  C     C_3   0.277056 0.951689 0.440442 -0.640242
H122  H     H_    0.303239 0.004989 0.442561 0.254320
H123  H     H_    0.240360 0.952003 0.423168 0.195336
H124  H     H_    0.319749 0.910640 0.436636 0.232091
N20   N     N_2   0.044318 0.228612 0.477691 -0.268836
H125  H     H_    0.003534 0.198589 0.486131 0.208062
C252  C     C_3   0.025345 0.253337 0.451531 -0.665239
H126  H     H_    0.977788 0.288836 0.452371 0.267449
H127  H     H_    0.013357 0.207280 0.438257 0.191509
H128  H     H_    0.070533 0.284801 0.442717 0.234799
N21   N     N_2   0.306273 0.165334 0.440819 -0.282048
H129  H     H_    0.326253 0.119450 0.431975 0.265774
C253  C     C_3   0.295186 0.224345 0.422690 -0.753738
H130  H     H_    0.295314 0.276627 0.433551 0.236590
H131  H     H_    0.242947 0.218196 0.411936 0.234033
H132  H     H_    0.338876 0.225006 0.407842 0.289845
N22   N     N_2   0.178151 0.651907 0.441689 -0.279918
H133  H     H_    0.137388 0.635266 0.429283 0.267956
C254  C     C_3   0.250361 0.634688 0.432386 -0.723483
H134  H     H_    0.254204 0.576252 0.427771 0.270222
H135  H     H_    0.291840 0.647041 0.447682 0.242868
H136  H     H_    0.262631 0.665992 0.414429 0.220253
N23   N     N_2   0.610628 0.817392 0.448525 -0.288717
H137  H     H_    0.596491 0.848155 0.432601 0.268637
C255  C     C_3   0.556255 0.763574 0.454782 -0.755744
H138  H     H_    0.501610 0.788836 0.454772 0.221178
H139  H     H_    0.565988 0.740749 0.474555 0.259499
H140  H     H_    0.557376 0.718876 0.440136 0.226632
N24   N     N_2   0.832273 0.346663 0.439995 -0.281369
H141  H     H_    0.871356 0.357241 0.426244 0.275922
C256  C     C_3   0.761006 0.372471 0.432395 -0.773701
H142  H     H_    0.765447 0.426612 0.423628 0.251150
H143  H     H_    0.725010 0.376872 0.449745 0.257289
H144  H     H_    0.735877 0.335348 0.417702 0.228472
N25   N     N_2   0.152048 0.744582 0.903628 -0.300824
H145  H     H_    0.096293 0.740707 0.903991 0.206934
C257  C     C_3   0.186892 0.686370 0.889432 -0.756270
H146  H     H_    0.160648 0.679720 0.869916 0.255786
H147  H     H_    0.181735 0.634850 0.900358 0.224377
H148  H     H_    0.245295 0.698907 0.886397 0.260962
N26   N     N_2   0.472865 0.408746 0.989630 -0.282268
H149  H     H_    0.518480 0.377832 0.992521 0.239178
C258  C     C_3   0.469387 0.471093 0.006853 -0.804876
H150  H     H_    0.426822 0.509339 0.000132 0.248808
H151  H     H_    0.522426 0.499798 0.006730 0.237653
H152  H     H_    0.457416 0.453863 0.027209 0.225734
N27   N     N_2   0.665769 0.417490 0.928247 -0.293415
H153  H     H_    0.690793 0.416285 0.910207 0.244490
C259  C     C_3   0.588765 0.431533 0.926162 -0.762372
H154  H     H_    0.561198 0.387105 0.915249 0.240543
H155  H     H_    0.580085 0.482722 0.915367 0.265724
H156  H     H_    0.564429 0.437188 0.945955 0.265420
N28   N     N_2   0.584026 0.641393 0.928060 -0.290341
H157  H     H_    0.566373 0.674654 0.913213 0.227300
C260  C     C_3   0.525592 0.616382 0.944597 -0.816431
H158  H     H_    0.481036 0.594508 0.932165 0.248007
H159  H     H_    0.503577 0.661398 0.956687 0.228699
H160  H     H_    0.545045 0.572788 0.957717 0.260597
N29   N     N_2   0.723573 0.591689 0.914690 -0.288565
H161  H     H_    0.765083 0.554961 0.917082 0.229206
C261  C     C_3   0.723730 0.624306 0.888995 -0.739320
H162  H     H_    0.726288 0.581224 0.873759 0.235817
H163  H     H_    0.771695 0.660147 0.886850 0.245889
H164  H     H_    0.673480 0.656076 0.885710 0.232951
N30   N     N_2   0.650963 0.275592 0.908677 -0.304226
H165  H     H_    0.607163 0.241419 0.906210 0.219185
C262  C     C_3   0.708850 0.263331 0.890126 -0.822033
H166  H     H_    0.686480 0.265083 0.869902 0.236870
H167  H     H_    0.733830 0.209518 0.893325 0.242298
H168  H     H_    0.751167 0.305993 0.892047 0.241148
N31   N     N_2   0.372094 0.457530 0.952737 -0.288060
H169  H     H_    0.334616 0.498856 0.952111 0.213107
C263  C     C_3   0.398995 0.436511 0.927201 -0.781174
H170  H     H_    0.429901 0.481985 0.918632 0.241672
H171  H     H_    0.353162 0.423326 0.913800 0.236921
H172  H     H_    0.435474 0.388906 0.928693 0.247879
N32   N     N_2   0.257446 0.851827 0.904887 -0.278596
H173  H     H_    0.311192 0.866898 0.903551 0.254776
C264  C     C_3   0.207106 0.905098 0.894934 -0.648446
H174  H     H_    0.224954 0.922918 0.875257 0.265226
H175  H     H_    0.205494 0.952678 0.908173 0.227404
H176  H     H_    0.151580 0.882182 0.893004 0.228009
N33   N     N_2   0.845303 0.084796 0.426608 -0.284587
H177  H     H_    0.813521 0.071336 0.410637 0.235701
C265  C     C_3   0.859922 0.022900 0.442995 -0.841058
H178  H     H_    0.880400 0.977727 0.430690 0.246130
H179  H     H_    0.901287 0.036808 0.458060 0.249790
H180  H     H_    0.809845 0.004197 0.452926 0.236389
N34   N     N_2   0.808753 0.706365 0.401238 -0.287241
H181  H     H_    0.804369 0.652962 0.395692 0.198118
C266  C     C_3   0.881014 0.735914 0.398277 -0.758167
H182  H     H_    0.901550 0.722964 0.378356 0.250495
H183  H     H_    0.918751 0.712422 0.412987 0.226744
H184  H     H_    0.879845 0.795688 0.400683 0.251897
N35   N     N_2   0.108346 0.907205 0.435204 -0.290700
H185  H     H_    0.124354 0.959063 0.439562 0.275557
C267  C     C_3   0.030411 0.899317 0.437754 -0.745883
H186  H     H_    0.009745 0.852832 0.426100 0.262463
H187  H     H_    0.003512 0.948655 0.430223 0.242850
H188  H     H_    0.015509 0.891950 0.458640 0.225772
N36   N     N_2   0.061453 0.078510 0.462181 -0.300972
H189  H     H_    0.013640 0.098806 0.454823 0.239895
C268  C     C_3   0.049791 0.040422 0.486506 -0.866596
H190  H     H_    0.005904 0.999889 0.483883 0.243497
H191  H     H_    0.033350 0.078612 0.502304 0.231043
H192  H     H_    0.099907 0.011777 0.492621 0.246361
N37   N     N_2   0.179270 0.082568 0.423879 -0.319302
H193  H     H_    0.228030 0.076251 0.414415 0.230811
C269  C     C_3   0.122380 0.104153 0.405811 -0.761032
H194  H     H_    0.131057 0.077612 0.386470 0.240369
H195  H     H_    0.122982 0.163712 0.403070 0.229271
H196  H     H_    0.068344 0.086741 0.412821 0.258956
N38   N     N_2   0.106395 0.766854 0.412566 -0.299741
H197  H     H_    0.079768 0.718312 0.410099 0.208246
C270  C     C_3   0.146132 0.790654 0.389776 -0.790091
H198  H     H_    0.114306 0.778216 0.371750 0.230752
H199  H     H_    0.199383 0.762729 0.388707 0.225431
H200  H     H_    0.155479 0.849941 0.390593 0.270371
N39   N     N_2   0.698911 0.809387 0.401707 -0.284799
H201  H     H_    0.683059 0.862641 0.403488 0.236924
C271  C     C_3   0.651951 0.766692 0.384818 -0.651217
H202  H     H_    0.640445 0.796976 0.366542 0.272155
H203  H     H_    0.599881 0.755271 0.394781 0.243528
H204  H     H_    0.678257 0.714769 0.379400 0.225393
N40   N     N_2   0.893055 0.224026 0.410877 -0.300944
H205  H     H_    0.929984 0.265787 0.411316 0.214929
C272  C     C_3   0.853242 0.222340 0.386353 -0.760086
H206  H     H_    0.891088 0.232388 0.369903 0.233622
H207  H     H_    0.810589 0.264749 0.386201 0.240833
H208  H     H_    0.828689 0.168496 0.382868 0.236061
N41   N     N_2   0.430123 0.813238 0.776597 -0.304095
H209  H     H_    0.387338 0.814491 0.789570 0.260881
C273  C     C_3   0.490406 0.766706 0.783554 -0.692399
H210  H     H_    0.483907 0.713839 0.773382 0.216733
H211  H     H_    0.490786 0.756827 0.805002 0.263022
H212  H     H_    0.543531 0.790884 0.778083 0.234846
N42   N     N_2   0.093314 0.644445 0.783425 -0.256161
H213  H     H_    0.069723 0.693601 0.779409 0.222547
C274  C     C_3   0.171636 0.648410 0.785592 -0.714623
H214  H     H_    0.196165 0.658780 0.766116 0.205614
H215  H     H_    0.193804 0.597140 0.793542 0.259744
H216  H     H_    0.186962 0.693144 0.799175 0.240353
N43   N     N_2   0.466407 0.211344 0.776629 -0.257635
H217  H     H_    0.503471 0.250214 0.771247 0.219068
C275  C     C_3   0.392935 0.238619 0.778537 -0.715078
H218  H     H_    0.371145 0.251457 0.758768 0.202520
H219  H     H_    0.392660 0.288607 0.790725 0.238412
H220  H     H_    0.356994 0.198106 0.787943 0.257184
N44   N     N_2   0.988105 0.259775 0.772691 -0.264393
H221  H     H_    0.017839 0.216023 0.766242 0.216219
C276  C     C_3   0.910792 0.245383 0.773728 -0.709506
H222  H     H_    0.888015 0.238095 0.753691 0.203442
H223  H     H_    0.881859 0.290640 0.783586 0.259126
H224  H     H_    0.901042 0.195257 0.785046 0.235779
N45   N     N_2   0.228018 0.443107 0.275006 -0.253880
H225  H     H_    0.276275 0.466480 0.269367 0.218607
C277  C     C_3   0.231590 0.364976 0.276097 -0.720794
H226  H     H_    0.277229 0.349162 0.289117 0.242452
H227  H     H_    0.240619 0.341538 0.256291 0.197121
H228  H     H_    0.180579 0.342134 0.284166 0.262621
N46   N     N_2   0.324829 0.124235 0.277240 -0.254895
H229  H     H_    0.274978 0.109056 0.269767 0.209017
C278  C     C_3   0.328869 0.198551 0.286120 -0.688848
H230  H     H_    0.325015 0.235550 0.269219 0.202164
H231  H     H_    0.380529 0.208831 0.296888 0.260430
H232  H     H_    0.283014 0.209866 0.299592 0.244093
N47   N     N_2   0.858310 0.595890 0.281813 -0.254453
H233  H     H_    0.831218 0.640146 0.274495 0.222019
C279  C     C_3   0.810144 0.538630 0.290195 -0.721408
H234  H     H_    0.782747 0.513062 0.273037 0.201695
H235  H     H_    0.768220 0.561339 0.303477 0.235757
H236  H     H_    0.840786 0.496643 0.301036 0.285157
N48   N     N_2   0.699653 0.980119 0.277656 -0.293944
H237  H     H_    0.693390 0.940839 0.291708 0.274101
C280  C     C_3   0.757700 0.032057 0.281725 -0.736831
H238  H     H_    0.809984 0.007123 0.275841 0.225051
H239  H     H_    0.761287 0.047515 0.302758 0.272575
H240  H     H_    0.749293 0.081712 0.269910 0.226577
N49   N     N_2   0.230411 0.472585 0.220478 -0.250974
H241  H     H_    0.261790 0.428966 0.225736 0.222271
C281  C     C_3   0.272406 0.538125 0.217201 -0.720909
H242  H     H_    0.293186 0.557885 0.236442 0.202323
H243  H     H_    0.238674 0.581019 0.208088 0.254511
H244  H     H_    0.319275 0.527012 0.204163 0.239802
N50   N     N_2   0.334692 0.140116 0.221581 -0.256279
H245  H     H_    0.283444 0.141342 0.229505 0.214572
C282  C     C_3   0.357637 0.209769 0.211665 -0.678360
H246  H     H_    0.372075 0.246921 0.228048 0.198401
H247  H     H_    0.312821 0.234198 0.200102 0.236937
H248  H     H_    0.405510 0.203966 0.198665 0.273779
N51   N     N_2   0.850796 0.596429 0.226357 -0.256516
H249  H     H_    0.802107 0.585004 0.235302 0.221387
C283  C     C_3   0.856437 0.670677 0.217814 -0.699330
H250  H     H_    0.862822 0.707595 0.234952 0.198926
H251  H     H_    0.806454 0.685786 0.206901 0.239199
H252  H     H_    0.903521 0.677312 0.204527 0.276643
N52   N     N_2   0.694982 0.968007 0.223631 -0.247457
H253  H     H_    0.745041 0.986227 0.229968 0.239085
C284  C     C_3   0.691610 0.890038 0.221203 -0.681274
H254  H     H_    0.695372 0.864615 0.240838 0.211451
H255  H     H_    0.737620 0.870669 0.209045 0.232864
H256  H     H_    0.640068 0.873115 0.211502 0.261403
N53   N     N_2   0.443412 0.810929 0.722329 -0.241626
H257  H     H_    0.407207 0.774729 0.730316 0.238645
C285  C     C_3   0.511460 0.777574 0.714861 -0.708837
H258  H     H_    0.541166 0.757978 0.732349 0.214504
H259  H     H_    0.546507 0.816479 0.704354 0.246492
H260  H     H_    0.500422 0.730877 0.701628 0.235963
N54   N     N_2   0.057203 0.662851 0.729856 -0.249523
H261  H     H_    0.101352 0.693597 0.735534 0.223434
C286  C     C_3   0.989500 0.702649 0.730411 -0.702920
H262  H     H_    0.973980 0.716063 0.750880 0.200030
H263  H     H_    0.945129 0.670480 0.721158 0.256238
H264  H     H_    0.995783 0.753703 0.719319 0.240429
N55   N     N_2   0.501460 0.207071 0.722732 -0.260903
H265  H     H_    0.469585 0.250777 0.727693 0.218009
C287  C     C_3   0.578133 0.224347 0.721601 -0.697882
H266  H     H_    0.599974 0.235731 0.741541 0.197592
H267  H     H_    0.586193 0.272896 0.709259 0.235174
H268  H     H_    0.609015 0.178767 0.712771 0.267970
N56   N     N_2   0.018248 0.266269 0.718230 -0.249701
H269  H     H_    0.980064 0.227891 0.723017 0.224839
C288  C     C_3   0.090042 0.236163 0.714518 -0.721080
H270  H     H_    0.112923 0.217720 0.733515 0.203484
H271  H     H_    0.127063 0.277052 0.705901 0.253356
H272  H     H_    0.086751 0.189215 0.700867 0.239811
O85   O     O_3   0.979913 0.634483 0.153435 -0.559850
C289  C     C_3   0.042404 0.678795 0.153073 0.094739
H273  H     H_    0.055694 0.694720 0.132615 0.146887
H274  H     H_    0.090072 0.650826 0.161956 0.142066
C290  C     C_3   0.028082 0.747126 0.168964 -0.823370
H275  H     H_    0.018207 0.733144 0.189782 0.243598
H276  H     H_    0.075973 0.783580 0.167981 0.211041
H277  H     H_    0.979892 0.775769 0.161001 0.264644
O86   O     O_3   0.500555 0.895899 0.158538 -0.580149
C291  C     C_3   0.428312 0.875217 0.163855 0.114293
H278  H     H_    0.400528 0.856002 0.145654 0.160746
H279  H     H_    0.396776 0.920733 0.172554 0.156040
C292  C     C_3   0.429014 0.813691 0.183467 -0.823680
H280  H     H_    0.455736 0.831711 0.201971 0.252734
H281  H     H_    0.372468 0.796730 0.187814 0.207105
H282  H     H_    0.459123 0.766761 0.175264 0.262553
O87   O     O_3   0.062620 0.387102 0.155035 -0.548307
C293  C     C_3   0.002227 0.344898 0.162395 0.101332
H283  H     H_    0.974432 0.321908 0.144753 0.139048
H284  H     H_    0.962588 0.377251 0.174031 0.140907
C294  C     C_3   0.028278 0.282762 0.179361 -0.797483
H285  H     H_    0.055544 0.304296 0.197268 0.254868
H286  H     H_    0.981278 0.248966 0.185265 0.201047
H287  H     H_    0.067206 0.248628 0.168240 0.262675
O88   O     O_3   0.502325 0.154664 0.149270 -0.585020
C295  C     C_3   0.574148 0.180168 0.152623 0.099695
H288  H     H_    0.590960 0.209760 0.134763 0.158326
H289  H     H_    0.614285 0.136296 0.156576 0.151357
C296  C     C_3   0.576253 0.232269 0.175817 -0.837342
H290  H     H_    0.560124 0.203631 0.193971 0.248642
H291  H     H_    0.632101 0.254027 0.178414 0.212024
H292  H     H_    0.538309 0.277923 0.172407 0.260740
O89   O     O_3   0.357393 0.043549 0.650655 -0.593452
C297  C     C_3   0.344541 0.118451 0.647604 0.124929
H293  H     H_    0.312953 0.127876 0.629337 0.160268
H294  H     H_    0.395489 0.151175 0.646884 0.162192
C298  C     C_3   0.300009 0.145709 0.670687 -0.813278
H295  H     H_    0.330598 0.137660 0.689263 0.259810
H296  H     H_    0.288524 0.204261 0.668359 0.202843
H297  H     H_    0.247704 0.115850 0.671660 0.256651
O90   O     O_3   0.903374 0.414888 0.655018 -0.545881
C299  C     C_3   0.850055 0.464561 0.663392 0.105096
H298  H     H_    0.820937 0.487888 0.646229 0.139762
H299  H     H_    0.874391 0.509182 0.675360 0.133765
C300  C     C_3   0.795143 0.425326 0.680355 -0.803871
H300  H     H_    0.822770 0.402144 0.697783 0.255299
H301  H     H_    0.752703 0.463771 0.687050 0.198981
H302  H     H_    0.768901 0.381017 0.668925 0.262400
O91   O     O_3   0.608030 0.976925 0.657781 -0.590141
C301  C     C_3   0.623651 0.902211 0.658393 0.112527
H303  H     H_    0.649954 0.884676 0.639874 0.170122
H304  H     H_    0.573955 0.868956 0.661460 0.159648
C302  C     C_3   0.676045 0.887695 0.680869 -0.846599
H305  H     H_    0.651579 0.905378 0.699722 0.255659
H306  H     H_    0.688106 0.828947 0.681845 0.207225
H307  H     H_    0.727557 0.917759 0.677806 0.266258
O92   O     O_3   0.129572 0.547648 0.653101 -0.541305
C303  C     C_3   0.185078 0.495096 0.652888 0.090135
H308  H     H_    0.202602 0.483070 0.632434 0.136745
H309  H     H_    0.166872 0.444091 0.662382 0.138115
C304  C     C_3   0.250184 0.523996 0.668138 -0.793895
H310  H     H_    0.234415 0.535808 0.688727 0.255505
H311  H     H_    0.294321 0.483130 0.668113 0.199188
H312  H     H_    0.270499 0.574363 0.658946 0.263316
N57   N     N_2   0.941507 0.621534 0.101793 -0.254765
H313  H     H_    0.968797 0.651641 0.088113 0.248599
C305  C     C_3   0.866525 0.605054 0.095577 -0.717933
H314  H     H_    0.837314 0.655704 0.090778 0.209097
H315  H     H_    0.839315 0.580167 0.112715 0.255764
H316  H     H_    0.863066 0.567613 0.078499 0.206859
N58   N     N_2   0.492735 0.876546 0.104193 -0.287176
H317  H     H_    0.462685 0.873330 0.087122 0.225871
C306  C     C_3   0.561093 0.838845 0.102256 -0.754672
H318  H     H_    0.551466 0.782290 0.095717 0.221206
H319  H     H_    0.589281 0.837688 0.121556 0.284885
H320  H     H_    0.595787 0.866093 0.087676 0.226998
N59   N     N_2   0.060773 0.379008 0.101420 -0.263395
H321  H     H_    0.025175 0.351318 0.089388 0.241070
C307  C     C_3   0.134318 0.384486 0.091776 -0.683388
H322  H     H_    0.153277 0.330353 0.085284 0.205839
H323  H     H_    0.171284 0.404138 0.107585 0.259141
H324  H     H_    0.136859 0.421975 0.074898 0.214969
N60   N     N_2   0.498883 0.142334 0.094418 -0.293787
H325  H     H_    0.521586 0.136685 0.076095 0.209522
C308  C     C_3   0.428992 0.177797 0.093546 -0.723142
H326  H     H_    0.431626 0.224964 0.080219 0.214626
H327  H     H_    0.413378 0.197555 0.113326 0.285008
H328  H     H_    0.386979 0.139565 0.086204 0.224082
N61   N     N_2   0.362247 0.034672 0.595129 -0.310399
H329  H     H_    0.371559 0.052025 0.576315 0.221895
C309  C     C_3   0.305271 0.980908 0.596259 -0.772965
H330  H     H_    0.257982 0.999074 0.584439 0.213538
H331  H     H_    0.286788 0.972685 0.616688 0.293374
H332  H     H_    0.325063 0.929004 0.588129 0.225655
N62   N     N_2   0.895716 0.414331 0.601257 -0.265379
H333  H     H_    0.863402 0.442146 0.588329 0.246741
C310  C     C_3   0.918837 0.344058 0.591911 -0.722129
H334  H     H_    0.870854 0.312439 0.585235 0.206704
H335  H     H_    0.945820 0.313642 0.607945 0.266231
H336  H     H_    0.956974 0.349922 0.575237 0.202967
N63   N     N_2   0.623811 0.976201 0.602814 -0.301672
H337  H     H_    0.622007 0.953588 0.584353 0.225412
C311  C     C_3   0.673726 0.036458 0.604183 -0.764509
H338  H     H_    0.727950 0.018889 0.597166 0.217499
H339  H     H_    0.679658 0.056820 0.624615 0.289997
H340  H     H_    0.654029 0.080403 0.591378 0.227746
N64   N     N_2   0.108725 0.580647 0.601382 -0.259548
H341  H     H_    0.141346 0.558367 0.587210 0.240294
C312  C     C_3   0.078174 0.650052 0.594596 -0.730419
H342  H     H_    0.122397 0.687361 0.588733 0.211051
H343  H     H_    0.049845 0.674162 0.611749 0.262430
H344  H     H_    0.039507 0.644213 0.577947 0.209853
O93   O     O_3   0.597958 0.046970 0.841359 -0.593710
C313  C     C_3   0.614807 0.121070 0.845287 0.158046
H345  H     H_    0.652311 0.127838 0.862199 0.181676
H346  H     H_    0.566063 0.155142 0.849106 0.170438
C314  C     C_3   0.652347 0.149754 0.820963 -0.834448
H347  H     H_    0.615914 0.144169 0.803647 0.272538
H348  H     H_    0.666118 0.207776 0.823786 0.202720
H349  H     H_    0.703112 0.119002 0.817298 0.248951
O94   O     O_3   0.922087 0.541562 0.838670 -0.565022
C315  C     C_3   0.855531 0.505903 0.833932 0.109896
H350  H     H_    0.824509 0.499025 0.852478 0.143170
H351  H     H_    0.864646 0.451958 0.824639 0.138745
C316  C     C_3   0.809994 0.551151 0.815319 -0.834140
H352  H     H_    0.839162 0.558224 0.796487 0.256456
H353  H     H_    0.757316 0.523707 0.811404 0.204285
H354  H     H_    0.799366 0.605120 0.824200 0.259733
O95   O     O_3   0.345078 0.987896 0.850806 -0.572034
C317  C     C_3   0.305888 0.052532 0.846602 0.132294
H355  H     H_    0.339495 0.102854 0.847617 0.147241
H356  H     H_    0.262609 0.056472 0.861573 0.170205
C318  C     C_3   0.269280 0.049060 0.819811 -0.858323
H357  H     H_    0.232393 0.001536 0.818690 0.260474
H358  H     H_    0.237076 0.098978 0.816580 0.211186
H359  H     H_    0.310674 0.044336 0.804146 0.251208
O96   O     O_3   0.105526 0.362244 0.855647 -0.577694
C319  C     C_3   0.091983 0.288615 0.861095 0.193455
H360  H     H_    0.033060 0.274612 0.860431 0.150002
H361  H     H_    0.114609 0.274717 0.880589 0.165045
C320  C     C_3   0.130995 0.241893 0.840914 -0.833631
H362  H     H_    0.190351 0.252723 0.841689 0.246974
H363  H     H_    0.121463 0.183807 0.845136 0.197101
H364  H     H_    0.110503 0.253811 0.820898 0.284797
O97   O     O_3   0.159626 0.544520 0.355365 -0.533277
C321  C     C_3   0.161127 0.620609 0.356701 0.127728
H365  H     H_    0.157596 0.639409 0.377417 0.164492
H366  H     H_    0.115745 0.644411 0.345075 0.131606
C322  C     C_3   0.232467 0.647336 0.345363 -0.825141
H367  H     H_    0.238194 0.627867 0.324821 0.264670
H368  H     H_    0.233726 0.707358 0.345522 0.198928
H369  H     H_    0.278709 0.626917 0.357244 0.257610
O98   O     O_3   0.469098 0.160160 0.354267 -0.542376
C323  C     C_3   0.533271 0.195522 0.346158 0.116079
H370  H     H_    0.546884 0.179264 0.325767 0.150699
H371  H     H_    0.580817 0.183933 0.359126 0.112060
C324  C     C_3   0.520511 0.276743 0.346554 -0.831574
H372  H     H_    0.507027 0.294995 0.366748 0.256005
H373  H     H_    0.570288 0.305300 0.340022 0.204431
H374  H     H_    0.474928 0.290615 0.333168 0.259286
O99   O     O_3   0.924133 0.437986 0.339448 -0.589563
C325  C     C_3   0.946812 0.366785 0.333701 0.116405
H375  H     H_    0.955763 0.335286 0.351988 0.143588
H376  H     H_    0.997781 0.367147 0.322042 0.147138
C326  C     C_3   0.888232 0.328847 0.317593 -0.867787
H377  H     H_    0.878431 0.358654 0.299082 0.254395
H378  H     H_    0.905810 0.272924 0.312754 0.214354
H379  H     H_    0.836935 0.326263 0.328928 0.258219
O100  O     O_3   0.531483 0.906946 0.340505 -0.556228
C327  C     C_3   0.467580 0.878931 0.328819 0.135290
H380  H     H_    0.445558 0.916873 0.314024 0.140811
H381  H     H_    0.424741 0.867942 0.343604 0.134165
C328  C     C_3   0.485627 0.808353 0.314849 -0.838241
H382  H     H_    0.508285 0.768946 0.329027 0.257516
H383  H     H_    0.435702 0.785171 0.305807 0.206252
H384  H     H_    0.526222 0.818281 0.299226 0.255892
O101  O     O_3   0.618068 0.033938 0.896133 -0.632118
C329  C     C_3   0.669174 0.978679 0.890724 0.146664
H385  H     H_    0.648069 0.932927 0.878442 0.143701
H386  H     H_    0.686718 0.956577 0.909806 0.142992
C330  C     C_3   0.737073 0.009546 0.877905 -0.850904
H387  H     H_    0.782200 0.970010 0.879518 0.206736
H388  H     H_    0.727431 0.019670 0.856797 0.278498
H389  H     H_    0.753819 0.060688 0.887731 0.250694
O102  O     O_3   0.928841 0.584170 0.890165 -0.608071
C331  C     C_3   0.978748 0.641660 0.886396 0.138857
H390  H     H_    0.031981 0.625858 0.877559 0.154957
H391  H     H_    0.991610 0.665354 0.905811 0.120235
C332  C     C_3   0.944826 0.699292 0.869035 -0.778903
H392  H     H_    0.890236 0.714402 0.876305 0.241892
H393  H     H_    0.979949 0.748170 0.869013 0.192660
H394  H     H_    0.939519 0.678881 0.848611 0.295847
O103  O     O_3   0.357029 0.009330 0.904451 -0.627354
C333  C     C_3   0.354323 0.076284 0.918304 0.132035
H395  H     H_    0.393609 0.117802 0.911179 0.139810
H396  H     H_    0.365655 0.065932 0.939312 0.167502
C334  C     C_3   0.278777 0.109375 0.916713 -0.908528
H397  H     H_    0.236611 0.068772 0.921389 0.262194
H398  H     H_    0.274725 0.154455 0.931131 0.223253
H399  H     H_    0.268714 0.131688 0.896927 0.233200
O104  O     O_3   0.070293 0.370932 0.910261 -0.588005
C335  C     C_3   0.015334 0.325255 0.920331 0.067981
H400  H     H_    0.983928 0.298154 0.904303 0.106445
H401  H     H_    0.976971 0.356126 0.932890 0.147148
C336  C     C_3   0.049562 0.266773 0.937136 -0.794364
H402  H     H_    0.081401 0.291832 0.953310 0.269696
H403  H     H_    0.006399 0.232331 0.945699 0.217155
H404  H     H_    0.085793 0.232194 0.925070 0.229758
O105  O     O_3   0.140484 0.518000 0.408426 -0.621189
C337  C     C_3   0.167098 0.448406 0.414820 0.104350
H405  H     H_    0.124398 0.405504 0.415179 0.129262
H406  H     H_    0.190144 0.451263 0.434964 0.156457
C338  C     C_3   0.227629 0.426003 0.396138 -0.789413
H407  H     H_    0.269458 0.469216 0.395112 0.266655
H408  H     H_    0.253534 0.375608 0.403215 0.196043
H409  H     H_    0.205212 0.415634 0.376226 0.285676
O106  O     O_3   0.449906 0.133314 0.406859 -0.575835
C339  C     C_3   0.505491 0.174997 0.418642 0.096522
H410  H     H_    0.540842 0.199091 0.403427 0.149964
H411  H     H_    0.536848 0.141481 0.432633 0.166583
C340  C     C_3   0.474506 0.237418 0.434578 -0.812282
H412  H     H_    0.437281 0.216923 0.449866 0.272809
H413  H     H_    0.519615 0.266866 0.444521 0.211485
H414  H     H_    0.446011 0.276078 0.421588 0.251724
O107  O     O_3   0.889431 0.454903 0.392290 -0.618748
C341  C     C_3   0.834770 0.501774 0.382512 0.167454
H415  H     H_    0.854736 0.546773 0.369921 0.159665
H416  H     H_    0.808313 0.527542 0.399545 0.117275
C342  C     C_3   0.776537 0.459114 0.367559 -0.804931
H417  H     H_    0.766250 0.406197 0.376945 0.253640
H418  H     H_    0.725146 0.490476 0.367218 0.189733
H419  H     H_    0.793008 0.449460 0.346986 0.281398
O108  O     O_3   0.514157 0.882171 0.392970 -0.597851
C343  C     C_3   0.444372 0.858216 0.400913 0.112534
H420  H     H_    0.398553 0.887688 0.391309 0.116260
H421  H     H_    0.439255 0.865062 0.422448 0.144468
C344  C     C_3   0.435018 0.778232 0.394442 -0.867203
H422  H     H_    0.474821 0.745514 0.405517 0.249787
H423  H     H_    0.379476 0.760456 0.399910 0.209184
H424  H     H_    0.442833 0.768396 0.373174 0.261555

loop_
_geom_bond_atom_site_label_1
_geom_bond_atom_site_label_2
_ccdc_geom_bond_type
C238  H74   S    
C54   O86   S    
C239  H77   S    
C269  H194  S    
C265  H179  S    
N49   H241  S    
C305  H316  S    
C33   C45   A    
C240  H78   S    
O48   Zn6   S    
C36   C42   A    
N20   H125  S    
C34   C42   A    
N32   H173  S    
C35   C47   A    
C78   N6    S    
C303  C304  S    
C322  H367  S    
N56   H269  S    
C80   N8    S    
C179  C195  A    
N53   H257  S    
C290  H276  S    
C292  H282  S    
C93   O105  S    
C283  H251  S    
C297  C298  S    
C329  H385  S    
C198  O82   S    
C177  C193  A    
C321  H365  S    
C185  O69   S    
O35   Zn13  S    
C279  H235  S    
C130  N18   S    
C230  H53   S    
C32   N56   S    
C138  C143  A    
C274  H215  S    
C139  C142  A    
C95   C99   A    
N22   C254  S    
C130  C146  A    
O30   Zn14  S    
C274  H214  S    
C119  O49   A    
C288  H270  S    
C294  H287  S    
C62   C70   A    
C223  C224  S    
C1    O5    A    
C113  O47   A    
C278  H230  S    
C61   N57   S    
O29   Zn13  S    
C114  O48   A    
O1    Zn11  S    
C328  H384  S    
C115  O45   A    
C237  C238  S    
C268  H191  S    
C200  O84   S    
C11   C15   A    
C130  C167  A    
O76   C223  S    
C66   C72   A    
C12   C16   A    
C131  C166  A    
C186  O70   S    
C244  H95   S    
O36   Zn16  S    
C70   C74   S    
C53   O85   S    
C267  H187  S    
C68   N64   S    
O26   Zn10  S    
C215  H16   S    
C87   O99   S    
O52   Zn8   S    
C220  H28   S    
C129  C145  A    
C313  C314  S    
C216  H18   S    
O3    Zn15  S    
C226  H45   S    
O4    Zn8   S    
C246  H103  S    
C232  H60   S    
N57   H313  S    
C155  C158  A    
C237  H72   S    
C251  H123  S    
C119  C179  S    
C241  H84   S    
C222  H34   S    
C47   O63   S    
C218  H23   S    
C261  H164  S    
C23   C27   A    
C253  H131  S    
C224  H40   S    
C211  H7    S    
C156  C173  A    
C325  H376  S    
C263  H170  S    
C147  C150  A    
C140  C141  A    
C261  H163  S    
C9    C207  A    
C278  H232  S    
C254  H135  S    
C219  H26   S    
O28   Zn12  S    
C264  H176  S    
C231  H57   S    
C114  O30   A    
C27   C35   A    
O69   C209  S    
C86   O98   S    
C189  O73   S    
C248  H112  S    
C294  H285  S    
C109  O43   A    
N62   H333  S    
N12   C244  S    
C110  O44   A    
C301  H303  S    
C238  H75   S    
C52   O68   S    
C252  H128  S    
C178  C194  A    
C110  O26   A    
C115  C183  S    
C281  H242  S    
C208  N4    A    
C342  H419  S    
C195  O79   S    
C215  C216  S    
C232  H59   S    
C281  H244  S    
C83   O95   S    
N35   H185  S    
C127  C143  A    
C148  C149  A    
C320  H364  S    
C295  H289  S    
C128  C144  A    
C341  C342  S    
N43   H217  S    
C331  H390  S    
C29   N53   S    
C87   C103  A    
C271  H203  S    
C45   O61   S    
C258  H151  S    
C337  H405  S    
C240  H80   S    
C235  H67   S    
C105  O39   A    
N44   H221  S    
C261  H162  S    
C322  H369  S    
C63   N59   S    
C185  C192  A    
C232  H58   S    
C262  H168  S    
C277  H227  S    
C297  H293  S    
C111  O27   A    
C213  C214  S    
C317  H355  S    
C60   O92   S    
C238  H73   S    
C120  O36   A    
C196  C197  A    
C212  H10   S    
C219  C220  S    
C82   C90   A    
C31   C39   A    
N46   H229  S    
O1    Zn1   S    
C329  H386  S    
C83   C91   A    
C272  H206  S    
C49   N7    A    
C284  H254  S    
C246  H102  S    
C1    O7    A    
O10   Zn16  S    
C161  C184  A    
C9    C15   A    
C125  N13   S    
C162  C183  A    
N29   C261  S    
N30   H165  S    
C10   C16   A    
N41   H209  S    
C287  H267  S    
O22   Zn10  S    
C217  C218  S    
C9    C21   A    
C194  O78   S    
C134  N22   S    
C113  O29   A    
O7    Zn9   S    
C11   C23   A    
C273  H212  S    
C289  H274  S    
N48   C280  S    
C221  H31   S    
C327  H381  S    
C243  H91   S    
C343  H421  S    
C264  H175  S    
O3    Zn13  S    
N21   C253  S    
C206  N4    A    
C249  H115  S    
C7    C13   A    
C167  C178  A    
C218  H25   S    
O5    Zn11  S    
N17   C249  S    
C214  H13   S    
C269  H196  S    
C89   C97   A    
O72   C215  S    
O49   Zn7   S    
C105  O21   A    
C76   O18   A    
C252  H127  S    
C236  H68   S    
O77   C225  S    
C305  H314  S    
C230  H54   S    
C118  C180  S    
C205  N3    A    
C257  H148  S    
C39   C51   A    
C150  N38   S    
C282  H246  S    
C159  C170  A    
C307  H323  S    
C84   C102  A    
C66   N62   S    
N50   H245  S    
C317  C318  S    
C52   N8    A    
N19   H121  S    
C255  H140  S    
C86   C104  A    
C340  H414  S    
C260  H160  S    
C73   O13   A    
C234  H63   S    
C312  H342  S    
C241  H83   S    
C81   C101  A    
N9    H81   S    
C332  H393  S    
C30   C38   A    
O87   C293  S    
C188  O72   S    
C318  H359  S    
N26   C258  S    
O19   Zn7   S    
C119  O35   A    
C285  H259  S    
O92   C303  S    
C199  O83   S    
C291  H279  S    
C212  H9    S    
N42   H213  S    
C47   N5    A    
C26   N50   S    
C147  N35   S    
C56   C78   A    
C134  C163  A    
N33   C265  S    
C298  H295  S    
C121  C137  A    
C295  H288  S    
C286  H263  S    
C269  H195  S    
C10   C208  A    
C341  H415  S    
C326  H379  S    
C213  H12   S    
C164  C181  A    
C59   C67   A    
C343  H420  S    
C85   C93   A    
C113  C181  S    
C63   C69   A    
C125  C141  A    
C136  C152  A    
C314  H348  S    
C55   C63   A    
O31   Zn15  S    
C242  H87   S    
C56   C64   A    
C131  C147  A    
C34   C46   A    
C94   C100  A    
C336  H403  S    
C250  H118  S    
C304  H310  S    
C91   O103  S    
C67   C71   A    
C284  H256  S    
C4    O12   A    
C95   O107  S    
C105  C173  S    
N21   H129  S    
C259  H156  S    
C207  N3    A    
N51   C283  S    
C333  C334  S    
O14   Zn2   S    
C286  H262  S    
C3    C100  S    
C127  C154  A    
C201  N1    A    
C338  H408  S    
O102  C331  S    
C109  C169  S    
O1    Zn3   S    
C227  H47   S    
C272  H208  S    
C209  H2    S    
C300  H301  S    
C120  O50   A    
C38   C50   A    
C128  N16   S    
O12   Zn14  S    
C106  O40   A    
N58   H317  S    
C132  C165  A    
C88   O100  S    
C76   O20   A    
C131  N19   S    
C103  N3    S    
C217  H21   S    
C303  H309  S    
C310  H336  S    
C148  N36   S    
O34   Zn14  S    
N59   H321  S    
C22   N46   S    
N23   C255  S    
C227  C228  S    
C266  H184  S    
C323  H371  S    
N14   H101  S    
N61   H329  S    
C24   N48   S    
C65   N61   S    
C6    C14   A    
C296  H291  S    
C322  H368  S    
C301  C302  S    
C45   N5    A    
C241  H82   S    
C225  C226  S    
C112  O28   A    
N48   H237  S    
C214  H15   S    
C247  H108  S    
C2    O8    A    
C290  H275  S    
C82   C102  A    
O40   Zn2   S    
N40   C272  S    
C89   O101  S    
C236  H70   S    
C223  H37   S    
N62   C310  S    
C325  C326  S    
C28   C36   A    
O44   Zn4   S    
C203  O55   S    
C204  O56   S    
C155  C174  A    
C137  C144  A    
N63   H337  S    
C270  H200  S    
C143  N31   S    
C106  O22   A    
C239  H76   S    
C233  H62   S    
C59   O91   S    
C187  O71   S    
C311  H338  S    
C220  H29   S    
C104  N4    S    
C29   C37   A    
C255  H138  S    
C229  H51   S    
C73   O15   A    
C234  H65   S    
C64   N60   S    
N56   C288  S    
C326  H377  S    
C20   C32   A    
C246  H104  S    
N24   C256  S    
C21   C25   A    
C299  H298  S    
C60   C80   A    
C137  N25   S    
C83   C101  A    
C129  C168  A    
C108  O38   A    
C335  H400  S    
C5    C13   A    
C127  N15   S    
C58   O90   S    
N26   H149  S    
C24   C28   A    
C223  H36   S    
C85   C103  A    
C1    C98   S    
C5    C203  A    
C253  H130  S    
C28   N52   S    
C292  H281  S    
C12   C24   A    
C311  H340  S    
C145  N33   S    
C276  H224  S    
C153  C160  A    
N25   C257  S    
C132  N20   S    
C154  C159  A    
O103  C333  S    
O2    Zn10  S    
C136  N24   S    
N46   C278  S    
C289  C290  S    
O3    Zn7   S    
C344  H422  S    
C339  H410  S    
O4    Zn16  S    
N64   C312  S    
C114  C184  S    
C324  H374  S    
C96   C100  A    
C49   O65   S    
N15   C247  S    
C56   O88   S    
C36   C48   A    
O17   Zn5   S    
C62   N58   S    
C293  H283  S    
C35   C41   A    
C267  H188  S    
C228  H49   S    
C145  C152  A    
C208  O60   S    
C304  H312  S    
C265  H178  S    
C40   C44   A    
C239  C240  S    
C129  N17   S    
N31   H169  S    
C316  H353  S    
C4    C99   S    
C259  H154  S    
C247  H106  S    
C90   O102  S    
C106  C176  S    
C333  H395  S    
C203  N1    A    
C215  H17   S    
C11   C205  A    
C330  H388  S    
C262  H166  S    
C258  H150  S    
C88   C104  A    
C242  H86   S    
C25   C33   A    
C276  H223  S    
C299  C300  S    
C110  C172  S    
C88   C96   A    
C123  N11   S    
O83   C237  S    
C17   C29   A    
C340  H412  S    
C191  O75   S    
C141  N29   S    
C249  H114  S    
C283  H250  S    
C19   C31   A    
C334  H399  S    
C308  H326  S    
N47   H233  S    
C249  H116  S    
C77   N5    S    
C277  H226  S    
N52   C284  S    
C222  H33   S    
O95   C317  S    
C10   C22   A    
C135  C162  A    
C224  H39   S    
O75   C221  S    
C50   O66   S    
N28   H157  S    
O73   C217  S    
C164  C165  A    
N50   C282  S    
C184  C200  A    
C276  H222  S    
C250  H120  S    
C278  H231  S    
C254  H134  S    
C219  H27   S    
N11   C243  S    
C344  H423  S    
C5    C17   A    
C201  O53   S    
O4    Zn6   S    
C168  C177  A    
O2    Zn12  S    
C205  O57   S    
N10   C242  S    
C2    O6    A    
C308  H328  S    
C101  N1    S    
C323  C324  S    
C305  H315  S    
C316  H352  S    
C310  H335  S    
C311  H339  S    
C186  C191  A    
N13   C245  S    
C120  C178  S    
C225  H41   S    
C187  C190  A    
C301  H304  S    
C337  C338  S    
N47   C279  S    
C146  N34   S    
O50   Zn6   S    
C112  C170  S    
C116  O32   A    
C2    C97   S    
C117  C177  S    
N42   C274  S    
C121  C160  A    
C108  C174  S    
N45   H225  S    
C8    C14   A    
C160  C169  A    
C281  H243  S    
C69   C73   S    
C315  H350  S    
C4    O10   A    
C320  H363  S    
C93   C99   A    
C125  C156  A    
C58   C80   A    
C55   O87   S    
C287  H268  S    
C81   C89   A    
C126  C155  A    
C48   O64   S    
C265  H180  S    
C181  C197  A    
C245  H98   S    
N49   C281  S    
O96   C319  S    
O90   C299  S    
C337  H406  S    
C240  H79   S    
O15   Zn3   S    
N13   H97   S    
O16   Zn4   S    
C280  H239  S    
C218  H24   S    
C210  H4    S    
C298  H296  S    
N39   H201  S    
C115  O31   A    
C136  C161  A    
C262  H167  S    
C140  N28   S    
O2    Zn4   S    
C283  H252  S    
C48   N6    A    
C279  H234  S    
N35   C267  S    
C92   C98   A    
N12   H93   S    
N24   H141  S    
C279  H236  S    
C122  C138  A    
C20   N44   S    
C74   O16   A    
C274  H216  S    
C59   C79   A    
C309  H330  S    
C31   N55   S    
C117  O33   A    
C289  H273  S    
O3    Zn5   S    
C275  H220  S    
C207  O59   S    
C54   C62   A    
C329  C330  S    
O107  C341  S    
C107  O23   A    
C116  C182  S    
C126  C142  A    
N34   H181  S    
C231  C232  S    
C17   N41   S    
C310  H334  S    
C343  C344  S    
C12   C206  A    
C37   C43   A    
C53   C77   A    
C267  H186  S    
C6    C204  A    
N29   H161  S    
O20   Zn8   S    
N14   C246  S    
C229  C230  S    
N52   H253  S    
C209  C210  S    
C50   N8    A    
C96   O108  S    
C152  N40   S    
C124  C157  A    
C170  C186  A    
C315  C316  S    
N63   C311  S    
C144  N32   S    
C273  H211  S    
C8    C20   A    
C91   C97   A    
C221  H32   S    
C324  H373  S    
C302  H307  S    
C15   C41   A    
C117  O51   A    
N36   H189  S    
C128  C153  A    
C174  C190  A    
O98   C323  S    
C118  O52   A    
N18   C250  S    
N53   C285  S    
N59   C307  S    
N57   C305  S    
C118  O34   A    
C237  H71   S    
C190  O74   S    
C248  H111  S    
N38   C270  S    
C133  C164  A    
C3    O11   A    
C13   C43   A    
C222  H35   S    
C14   C44   A    
C330  H387  S    
C67   N63   S    
C253  H132  S    
C51   N7    A    
C257  H147  S    
C211  H6    S    
C19   N43   S    
C245  H99   S    
C319  H360  S    
C318  H358  S    
C124  C140  A    
C121  N9    S    
C57   C65   A    
C344  H424  S    
C319  C320  S    
O25   Zn11  S    
C254  H136  S    
C331  H391  S    
C231  H56   S    
C333  H396  S    
C193  C200  A    
C332  H392  S    
O39   Zn1   S    
N37   C269  S    
C321  C322  S    
C335  H401  S    
C33   C41   A    
C282  H248  S    
O108  C343  S    
N16   C248  S    
C326  H378  S    
C202  O54   S    
N54   H261  S    
O104  C335  S    
O71   C213  S    
C216  H20   S    
C193  O77   S    
C212  H8    S    
O91   C301  S    
C107  C175  S    
C122  C159  A    
C135  C151  A    
O45   Zn7   S    
C94   O106  S    
C8    C202  A    
C196  O80   S    
C46   O62   S    
O46   Zn8   S    
C180  C196  A    
C149  N37   S    
O18   Zn6   S    
O84   C239  S    
C122  N10   S    
C341  H416  S    
N43   C275  S    
C312  H343  S    
C287  H266  S    
C302  H306  S    
C271  H204  S    
C84   O96   S    
C60   C68   A    
N61   C309  S    
N55   H265  S    
C22   C26   A    
C258  H152  S    
O99   C325  S    
N40   H205  S    
N45   C277  S    
C133  N21   S    
C235  H66   S    
C266  H182  S    
C74   O14   A    
C336  H402  S    
O81   C233  S    
C111  O41   A    
C314  H347  S    
C295  C296  S    
C54   C78   A    
C211  C212  S    
O24   Zn12  S    
O2    Zn2   S    
C277  H228  S    
C71   C75   S    
N64   H341  S    
N30   C262  S    
O97   C321  S    
C123  C139  A    
C259  H155  S    
N51   H249  S    
C57   C79   A    
C273  H210  S    
C182  C198  A    
C255  H139  S    
N16   H109  S    
C331  C332  S    
C46   N6    A    
C268  H190  S    
C264  H174  S    
N34   C266  S    
N22   H133  S    
N19   C251  S    
O106  C339  S    
O85   C289  S    
O70   C211  S    
C38   C44   A    
C272  H207  S    
C153  C176  A    
C300  H300  S    
O88   C295  S    
C228  H50   S    
C154  C175  A    
C210  H3    S    
N18   H117  S    
C338  H407  S    
O47   Zn5   S    
C342  H418  S    
C220  H30   S    
C156  C157  A    
N58   C306  S    
O79   C229  S    
C302  H305  S    
N41   C273  S    
C157  C172  A    
C175  C191  A    
C55   C77   A    
C217  H22   S    
C158  C171  A    
C176  C192  A    
O23   Zn11  S    
C340  H413  S    
C221  C222  S    
C257  H146  S    
C81   O93   S    
C135  N23   S    
O41   Zn3   S    
O86   C291  S    
C37   C49   A    
C82   O94   S    
C266  H183  S    
C252  H126  S    
O43   Zn1   S    
C195  C198  A    
C327  H380  S    
C243  H92   S    
C86   C94   A    
C260  H159  S    
C227  H46   S    
C58   C66   A    
C320  H362  S    
C108  O24   A    
C65   C71   A    
C284  H255  S    
C235  C236  S    
C151  N39   S    
C245  H100  S    
C313  H346  S    
C251  H122  S    
N28   C260  S    
C316  H354  S    
C75   O19   A    
O11   Zn13  S    
C109  O25   A    
C126  N14   S    
C236  H69   S    
C318  H357  S    
C296  H290  S    
C3    O9    A    
C111  C171  S    
O93   C313  S    
C68   C72   A    
C138  N26   S    
C230  H55   S    
C112  O42   A    
C244  H96   S    
C79   N7    S    
O101  C329  S    
N27   C259  S    
C324  H372  S    
O13   Zn1   S    
O94   C315  S    
C270  H199  S    
C307  H324  S    
C339  H411  S    
C233  C234  S    
C51   O67   S    
C323  H370  S    
C53   C61   A    
C290  H277  S    
C202  N2    A    
C297  H294  S    
C163  C166  A    
C21   N45   S    
C234  H64   S    
C26   C34   A    
C260  H158  S    
C309  H332  S    
C263  H171  S    
N9    C241  S    
C6    C18   A    
C332  H394  S    
C299  H299  S    
C275  H219  S    
C328  H383  S    
C206  O58   S    
C319  H361  S    
C132  C148  A    
O105  C337  S    
C334  H397  S    
O51   Zn5   S    
C133  C149  A    
C251  H124  S    
C248  H110  S    
N17   H113  S    
C288  H271  S    
C285  H260  S    
O4    Zn14  S    
N38   H197  S    
N36   C268  S    
C291  H278  S    
C102  N2    S    
C312  H344  S    
C39   C43   A    
C23   N47   S    
C293  C294  S    
C214  H14   S    
C292  H280  S    
C40   C52   A    
C338  H409  S    
C335  C336  S    
C124  N12   S    
C183  C199  A    
C162  C167  A    
C87   C95   A    
C188  C189  A    
C280  H240  S    
C327  C328  S    
N60   C308  S    
C286  H264  S    
C321  H366  S    
N44   C276  S    
N37   H193  S    
C213  H11   S    
C146  C151  A    
N31   C263  S    
C271  H202  S    
C210  H5    S    
O78   C227  S    
N27   H153  S    
N15   H105  S    
C216  H19   S    
C309  H331  S    
C72   C76   S    
N20   C252  S    
C275  H218  S    
C336  H404  S    
C293  H284  S    
C304  H311  S    
O1    Zn9   S    
C228  H48   S    
O21   Zn9   S    
C339  C340  S    
C18   C30   A    
C256  H143  S    
O33   Zn15  S    
C244  H94   S    
C64   C70   A    
C306  H319  S    
C298  H297  S    
C192  O76   S    
C288  H272  S    
O8    Zn10  S    
C306  H320  S    
C204  N2    A    
C16   C42   A    
C325  H375  S    
C268  H192  S    
C328  H382  S    
C226  H43   S    
C256  H142  S    
C61   C69   A    
C285  H258  S    
C27   N51   S    
C209  H1    S    
C300  H302  S    
C229  H52   S    
C134  C150  A    
C247  H107  S    
C296  H292  S    
C85   O97   S    
O32   Zn16  S    
C142  N30   S    
C291  C292  S    
N55   C287  S    
C18   N42   S    
C317  H356  S    
N25   H145  S    
O37   Zn3   S    
C270  H198  S    
C303  H308  S    
C294  H286  S    
C123  C158  A    
O38   Zn4   S    
O27   Zn9   S    
C107  O37   A    
C84   C92   A    
C224  H38   S    
C7    C19   A    
O9    Zn15  S    
C171  C187  A    
O42   Zn2   S    
C263  H172  S    
C30   N54   S    
C330  H389  S    
O89   C297  S    
N32   C264  S    
N39   C271  S    
C314  H349  S    
C169  C185  A    
C243  H90   S    
C250  H119  S    
N60   H325  S    
O100  C327  S    
C7    C201  A    
C25   N49   S    
C313  H345  S    
N11   H89   S    
O80   C231  S    
C172  C188  A    
C57   O89   S    
C173  C189  A    
C308  H327  S    
C242  H88   S    
C334  H398  S    
C75   O17   A    
O82   C235  S    
C32   C40   A    
N33   H177  S    
C256  H144  S    
C225  H42   S    
N54   C286  S    
C161  C168  A    
C116  O46   A    
C139  N27   S    
C197  O81   S    
N10   H85   S    
C194  C199  A    
C282  H247  S    
C342  H417  S    
O6    Zn12  S    
C307  H322  S    
C165  C180  A    
O74   C219  S    
C233  H61   S    
C315  H351  S    
C166  C179  A    
C226  H44   S    
C280  H238  S    
C306  H318  S    
C90   C98   A    
N23   H137  S    
C163  C182  A    
C92   O104  S    
