data_mof_unit_1945.cif
_audit_creation_date              2012-12-11T15:09:01-0500
_audit_creation_method            fapswitch 2.2
_symmetry_space_group_name_H-M    P1
_symmetry_Int_Tables_number       1
_space_group_crystal_system       triclinic
_cell_length_a                    19.44328
_cell_length_b                    11.734056
_cell_length_c                    18.627997
_cell_angle_alpha                 90.436173
_cell_angle_beta                  90.133828
_cell_angle_gamma                 89.606534
_cell_volume                      4249.71581343

loop_
_atom_site_label
_atom_site_type_symbol
_atom_type_description
_atom_site_fract_x
_atom_site_fract_y
_atom_site_fract_z
_atom_type_partial_charge
C1    C     C_R   0.274154 0.038220 0.855992 0.537516
C2    C     C_3   0.692575 0.518327 0.959659 -0.243349
C3    C     C_R   0.228304 0.549093 0.350545 0.526759
C4    C     C_R   0.468737 0.820813 0.646741 0.519937
C5    C     C_R   0.531124 0.822166 0.353840 0.521003
C6    C     C_R   0.968737 0.320813 0.646741 0.519936
C7    C     C_R   0.031125 0.322166 0.353840 0.521003
C8    C     C_R   0.272062 0.683557 0.636361 0.536881
C9    C     C_R   0.727674 0.685367 0.363443 0.540903
C10   C     C_R   0.772062 0.183557 0.636361 0.536882
C11   C     C_R   0.227674 0.185367 0.363443 0.540903
C12   C     C_3   0.471896 0.911452 0.029010 -0.127261
C13   C     C_3   0.807848 0.017377 0.039616 -0.243463
C14   C     C_3   0.528601 0.911726 0.971415 -0.129201
C15   C     C_3   0.971896 0.411452 0.029010 -0.127261
C16   C     C_3   0.028601 0.411726 0.971414 -0.129202
C17   C     C_3   0.433972 0.815908 0.986815 -0.126013
C18   C     C_3   0.567340 0.815895 0.012431 -0.128144
C19   C     C_3   0.933972 0.315908 0.986815 -0.126013
C20   C     C_3   0.067340 0.315896 0.012431 -0.128148
C21   C     C_3   0.490493 0.819488 0.930044 0.064685
C22   C     C_3   0.510745 0.818880 0.069291 0.064704
C23   C     C_3   0.990493 0.319488 0.930044 0.064685
C24   C     C_3   0.192574 0.018326 0.959659 -0.243348
C25   C     C_3   0.010745 0.318880 0.069291 0.064705
C26   C     C_3   0.169602 0.782071 0.407059 -0.283956
C27   C     C_3   0.099576 0.840002 0.415313 -0.469432
C28   C     C_3   0.822315 0.780715 0.601912 -0.273193
C29   C     C_3   0.892996 0.836919 0.603450 -0.459193
C30   C     C_3   0.669602 0.282071 0.407059 -0.283956
C31   C     C_3   0.599576 0.340002 0.415313 -0.469433
C32   C     C_3   0.322315 0.280715 0.601912 -0.273194
C33   C     C_3   0.392996 0.336919 0.603450 -0.459193
C34   C     C_3   0.124139 0.629547 0.569803 -0.275923
C35   C     C_3   0.317035 0.544615 0.959788 -0.231078
C36   C     C_3   0.053909 0.687901 0.562185 -0.470326
C37   C     C_3   0.881749 0.671948 0.429596 -0.255664
C38   C     C_3   0.915444 0.774822 0.393449 -0.424523
C39   C     C_3   0.624139 0.129547 0.569803 -0.275923
C40   C     C_3   0.553909 0.187901 0.562185 -0.470326
C41   C     C_3   0.381749 0.171948 0.429596 -0.255664
C42   C     C_3   0.415445 0.274823 0.393449 -0.424523
C43   C     C_3   0.682000 0.936447 0.887558 -0.306857
C44   C     C_3   0.648868 0.960595 0.814331 -0.428403
C45   C     C_3   0.318016 0.933947 0.109951 -0.308726
C46   C     C_3   0.683170 0.545340 0.039689 -0.231795
C47   C     C_3   0.352464 0.955963 0.182932 -0.429744
C48   C     C_3   0.182002 0.436449 0.887557 -0.306855
C49   C     C_3   0.148885 0.460605 0.814324 -0.428366
C50   C     C_3   0.818016 0.433947 0.109952 -0.308725
C51   C     C_3   0.852463 0.455965 0.182933 -0.429741
C52   C     C_3   0.817034 0.044613 0.959788 -0.231078
C53   C     C_3   0.183170 0.045339 0.039690 -0.231794
C54   C     C_3   0.178266 0.519311 0.019987 -0.210481
C55   C     C_3   0.822051 0.519166 0.978565 -0.208006
C56   C     C_3   0.678265 0.019312 0.019988 -0.210477
C57   C     C_R   0.725478 0.036913 0.143522 0.539003
C58   C     C_3   0.322051 0.019168 0.978565 -0.208004
C59   C     C_3   0.241014 0.693926 0.057067 -0.259284
C60   C     C_3   0.757849 0.695312 0.944742 -0.261911
C61   C     C_3   0.741015 0.193926 0.057066 -0.259286
C62   C     C_3   0.257847 0.195313 0.944743 -0.261913
C63   C     C_3   0.238712 0.565852 0.067023 0.049636
C64   C     C_3   0.761131 0.567173 0.932704 0.049608
C65   C     C_3   0.738712 0.065853 0.067023 0.049636
C66   C     C_3   0.261130 0.067174 0.932704 0.049609
C67   C     C_3   0.253023 0.610402 0.930073 0.077725
C68   C     C_R   0.774154 0.538219 0.855992 0.537517
C69   C     C_3   0.747207 0.609444 0.070213 0.077711
C70   C     C_3   0.753022 0.110400 0.930072 0.077723
C71   C     C_3   0.247207 0.109443 0.070213 0.077711
C72   C     C_3   0.186663 0.541837 0.938175 -0.101855
C73   C     C_3   0.813551 0.539845 0.060877 -0.103563
C74   C     C_3   0.686661 0.041835 0.938175 -0.101861
C75   C     C_3   0.313552 0.039845 0.060877 -0.103565
C76   C     C_3   0.240187 0.718994 0.976511 -0.239733
C77   C     C_3   0.759957 0.718615 0.025683 -0.237317
C78   C     C_3   0.740186 0.218992 0.976510 -0.239729
C79   C     C_R   0.225478 0.536912 0.143522 0.539004
C80   C     C_3   0.259956 0.218614 0.025684 -0.237316
C81   C     C_3   0.501303 0.698436 0.459283 -0.223298
C82   C     C_3   0.497822 0.696499 0.539761 -0.225725
C83   C     C_3   0.001303 0.198436 0.459283 -0.223298
C84   C     C_3   0.997822 0.196499 0.539761 -0.225725
C85   C     C_R   0.468358 0.819784 0.854375 0.528545
C86   C     C_R   0.532203 0.819562 0.145255 0.528743
C87   C     C_R   0.968358 0.319784 0.854375 0.528548
C88   C     C_R   0.032203 0.319562 0.145254 0.528743
C89   C     C_3   0.563645 0.893056 0.474001 -0.215487
C90   C     C_3   0.528534 0.724193 0.969786 -0.121181
C91   C     C_3   0.434107 0.890895 0.529313 -0.214782
C92   C     C_3   0.063645 0.393056 0.474001 -0.215486
C93   C     C_3   0.934107 0.390895 0.529313 -0.214781
C94   C     C_3   0.440986 0.882106 0.446265 -0.265730
C95   C     C_3   0.556109 0.877771 0.556795 -0.269154
C96   C     C_3   0.940986 0.382106 0.446265 -0.265730
C97   C     C_3   0.056109 0.377771 0.556795 -0.269155
C98   C     C_3   0.509433 0.823698 0.430831 0.071225
C99   C     C_3   0.489134 0.820400 0.570070 0.069825
C100  C     C_3   0.009433 0.323699 0.430831 0.071225
C101  C     C_3   0.473443 0.723938 0.028359 -0.120532
C102  C     C_3   0.989134 0.320400 0.570070 0.069826
C103  C     C_3   0.178023 0.671354 0.450431 -0.057689
C104  C     C_3   0.819464 0.674822 0.552102 -0.066092
C105  C     C_3   0.678023 0.171354 0.450431 -0.057689
C106  C     C_3   0.319463 0.174822 0.552102 -0.066092
C107  C     C_3   0.183501 0.692682 0.532551 -0.058843
C108  C     C_3   0.813800 0.703219 0.471157 -0.066269
C109  C     C_3   0.683501 0.192682 0.532551 -0.058843
C110  C     C_3   0.313800 0.203219 0.471157 -0.066269
C111  C     C_3   0.254331 0.496092 0.470891 -0.251987
C112  C     C_3   0.028534 0.224193 0.969786 -0.121183
C113  C     C_3   0.762327 0.493719 0.520333 -0.269926
C114  C     C_3   0.754330 0.996092 0.470891 -0.251988
C115  C     C_3   0.262327 0.993719 0.520333 -0.269926
C116  C     C_3   0.306328 0.667655 0.427961 -0.256243
C117  C     C_3   0.689694 0.646022 0.568010 -0.249175
C118  C     C_3   0.806328 0.167655 0.427961 -0.256242
C119  C     C_3   0.189694 0.146022 0.568010 -0.249175
C120  C     C_3   0.241843 0.597495 0.422703 0.058888
C121  C     C_3   0.759981 0.590647 0.574415 0.058063
C122  C     C_3   0.741843 0.097495 0.422703 0.058888
C123  C     C_3   0.973443 0.223938 0.028359 -0.120531
C124  C     C_3   0.259981 0.090647 0.574415 0.058063
C125  C     C_3   0.257943 0.654497 0.558490 0.041283
C126  C     C_3   0.742587 0.656259 0.440758 0.046674
C127  C     C_3   0.757943 0.154496 0.558490 0.041283
C128  C     C_3   0.242587 0.156259 0.440758 0.046674
C129  C     C_3   0.264405 0.528458 0.549136 -0.247675
C130  C     C_3   0.741219 0.529366 0.445700 -0.241807
C131  C     C_3   0.764405 0.028458 0.549136 -0.247675
C132  C     C_3   0.241219 0.029366 0.445700 -0.241807
C133  C     C_R   0.263000 0.646975 0.855427 0.550863
C134  C     C_3   0.307848 0.517377 0.039617 -0.243464
C135  C     C_R   0.737458 0.645294 0.145227 0.549924
C136  C     C_R   0.762999 0.146971 0.855426 0.550857
C137  C     C_R   0.237458 0.145292 0.145227 0.549923
C138  C     C_3   0.311564 0.707437 0.507144 -0.272439
C139  C     C_3   0.685885 0.700534 0.493137 -0.280720
C140  C     C_3   0.811564 0.207437 0.507144 -0.272439
C141  C     C_3   0.185885 0.200534 0.493137 -0.280720
C142  C     C_R   0.273528 0.043553 0.646679 0.526964
C143  C     C_R   0.728305 0.049093 0.350545 0.526759
C144  C     C_R   0.773528 0.543553 0.646679 0.526964
Cr1   Cr    Cr6+3 0.229620 0.836040 0.749110 0.980067
Cr2   Cr    Cr6+3 0.613980 0.676590 0.250790 0.980804
Cr3   Cr    Cr6+3 0.886020 0.176590 0.749210 0.979810
Cr4   Cr    Cr6+3 0.113980 0.176590 0.250790 0.980804
Cr5   Cr    Cr6+3 0.770380 0.836040 0.250890 0.966731
Cr6   Cr    Cr6+3 0.729620 0.336040 0.749110 0.980067
Cr7   Cr    Cr6+3 0.270380 0.336040 0.250890 0.966731
Cr8   Cr    Cr6+3 0.387630 0.990680 0.750730 0.976508
Cr9   Cr    Cr6+3 0.612370 0.990680 0.249270 0.979466
Cr10  Cr    Cr6+3 0.887630 0.490680 0.750730 0.976509
Cr11  Cr    Cr6+3 0.112370 0.490680 0.249270 0.979466
Cr12  Cr    Cr6+3 0.386020 0.676590 0.749210 0.979808
H1    H     H_    0.382541 0.788820 0.972270 0.087194
H2    H     H_    0.708946 0.724991 0.921813 0.109282
H3    H     H_    0.187005 0.005359 0.436713 0.150483
H4    H     H_    0.310425 0.425710 0.047631 0.129108
H5    H     H_    0.691066 0.426689 0.950610 0.131427
H6    H     H_    0.810424 0.925710 0.047632 0.129109
H7    H     H_    0.191067 0.926688 0.950610 0.131427
H8    H     H_    0.351015 0.553201 0.071495 0.110535
H9    H     H_    0.649156 0.553742 0.928033 0.110034
H10   H     H_    0.851014 0.053201 0.071494 0.110534
H11   H     H_    0.149156 0.053740 0.928033 0.110033
H12   H     H_    0.363897 0.596971 0.953530 0.137175
H13   H     H_    0.789111 0.222595 0.081978 0.109108
H14   H     H_    0.636323 0.598735 0.046460 0.138962
H15   H     H_    0.863896 0.096968 0.953529 0.137178
H16   H     H_    0.136323 0.098734 0.046460 0.138963
H17   H     H_    0.326777 0.464630 0.929219 0.114953
H18   H     H_    0.673224 0.465422 0.069247 0.114141
H19   H     H_    0.826775 0.964626 0.929219 0.114951
H20   H     H_    0.173224 0.965421 0.069247 0.114141
H21   H     H_    0.675436 0.931171 0.029951 0.107074
H22   H     H_    0.325914 0.931397 0.965799 0.107161
H23   H     H_    0.175439 0.431170 0.029949 0.107074
H24   H     H_    0.208942 0.224992 0.921816 0.109283
H25   H     H_    0.825912 0.431395 0.965801 0.107160
H26   H     H_    0.059071 0.779043 0.399823 0.151526
H27   H     H_    0.091492 0.871275 0.470965 0.137361
H28   H     H_    0.095775 0.913831 0.378542 0.150797
H29   H     H_    0.211107 0.835161 0.424512 0.134220
H30   H     H_    0.178652 0.770686 0.348774 0.183002
H31   H     H_    0.931547 0.776501 0.625193 0.153939
H32   H     H_    0.908453 0.864294 0.549126 0.137488
H33   H     H_    0.892015 0.912292 0.639818 0.155370
H34   H     H_    0.781305 0.835040 0.584505 0.125034
H35   H     H_    0.276309 0.783914 0.962940 0.101216
H36   H     H_    0.807714 0.765302 0.658373 0.182708
H37   H     H_    0.559071 0.279043 0.399823 0.151526
H38   H     H_    0.591492 0.371275 0.470965 0.137362
H39   H     H_    0.595775 0.413831 0.378542 0.150797
H40   H     H_    0.711107 0.335161 0.424512 0.134220
H41   H     H_    0.678652 0.270686 0.348774 0.183002
H42   H     H_    0.431547 0.276501 0.625193 0.153940
H43   H     H_    0.408453 0.364294 0.549125 0.137489
H44   H     H_    0.392015 0.412293 0.639818 0.155369
H45   H     H_    0.281305 0.335039 0.584505 0.125033
H46   H     H_    0.724737 0.784533 0.042045 0.103356
H47   H     H_    0.307714 0.265302 0.658373 0.182707
H48   H     H_    0.056444 0.777462 0.581569 0.151084
H49   H     H_    0.035658 0.685289 0.506009 0.141231
H50   H     H_    0.015507 0.642804 0.595236 0.136249
H51   H     H_    0.125925 0.547829 0.543321 0.126551
H52   H     H_    0.130047 0.606262 0.626690 0.191288
H53   H     H_    0.877790 0.832437 0.367358 0.191527
H54   H     H_    0.944023 0.826034 0.433721 0.112420
H55   H     H_    0.951834 0.743991 0.351690 0.129778
H56   H     H_    0.922207 0.637328 0.465077 0.107256
H57   H     H_    0.776309 0.283911 0.962937 0.101219
H58   H     H_    0.872134 0.604626 0.388915 0.176386
H59   H     H_    0.556444 0.277462 0.581569 0.151084
H60   H     H_    0.535658 0.185289 0.506009 0.141231
H61   H     H_    0.515507 0.142804 0.595236 0.136249
H62   H     H_    0.625926 0.047829 0.543321 0.126552
H63   H     H_    0.630047 0.106262 0.626690 0.191287
H64   H     H_    0.377790 0.332437 0.367358 0.191527
H65   H     H_    0.444024 0.326034 0.433721 0.112420
H66   H     H_    0.451834 0.243991 0.351690 0.129778
H67   H     H_    0.422207 0.137328 0.465077 0.107256
H68   H     H_    0.224737 0.284533 0.042048 0.103358
H69   H     H_    0.372134 0.104626 0.388915 0.176386
H70   H     H_    0.599605 0.008036 0.820525 0.155137
H71   H     H_    0.683926 0.008635 0.779082 0.188566
H72   H     H_    0.637634 0.878459 0.786808 0.130538
H73   H     H_    0.733234 0.898446 0.877717 0.148921
H74   H     H_    0.649003 0.872855 0.912392 0.149839
H75   H     H_    0.402447 0.999842 0.176527 0.155139
H76   H     H_    0.318772 0.006867 0.218956 0.188295
H77   H     H_    0.362509 0.873174 0.209667 0.132400
H78   H     H_    0.266511 0.898948 0.120463 0.149296
H79   H     H_    0.188362 0.753259 0.963945 0.117998
H80   H     H_    0.349650 0.868835 0.083638 0.151166
H81   H     H_    0.099642 0.508111 0.820504 0.155146
H82   H     H_    0.183971 0.508585 0.779069 0.188545
H83   H     H_    0.137616 0.378470 0.786813 0.130532
H84   H     H_    0.233235 0.398440 0.877725 0.148914
H85   H     H_    0.148998 0.372862 0.912385 0.149834
H86   H     H_    0.902445 0.499847 0.176529 0.155139
H87   H     H_    0.818770 0.506867 0.218957 0.188296
H88   H     H_    0.862509 0.373176 0.209669 0.132399
H89   H     H_    0.766511 0.398948 0.120463 0.149296
H90   H     H_    0.812123 0.750884 0.038007 0.119311
H91   H     H_    0.849651 0.368836 0.083640 0.151165
H92   H     H_    0.688362 0.253259 0.963944 0.117999
H93   H     H_    0.619111 0.789298 0.026379 0.087625
H94   H     H_    0.312123 0.250883 0.038007 0.119311
H95   H     H_    0.628733 0.057424 0.038504 0.132920
H96   H     H_    0.371164 0.058255 0.960910 0.133476
H97   H     H_    0.128733 0.557421 0.038503 0.132920
H98   H     H_    0.871164 0.558250 0.960910 0.133476
H99   H     H_    0.142256 0.597201 0.922997 0.140759
H100  H     H_    0.857781 0.594136 0.077153 0.140683
H101  H     H_    0.642255 0.097200 0.922996 0.140767
H102  H     H_    0.357781 0.094135 0.077153 0.140683
H103  H     H_    0.540121 0.634980 0.441774 0.133449
H104  H     H_    0.882541 0.288819 0.972270 0.087194
H105  H     H_    0.458572 0.634171 0.556113 0.131677
H106  H     H_    0.040121 0.134980 0.441774 0.133449
H107  H     H_    0.958572 0.134171 0.556113 0.131677
H108  H     H_    0.453821 0.661879 0.436901 0.112204
H109  H     H_    0.545685 0.658556 0.561489 0.115289
H110  H     H_    0.953821 0.161879 0.436901 0.112204
H111  H     H_    0.045685 0.158556 0.561489 0.115289
H112  H     H_    0.614345 0.873176 0.453558 0.099262
H113  H     H_    0.385919 0.864041 0.551613 0.103403
H114  H     H_    0.114345 0.373176 0.453558 0.099262
H115  H     H_    0.119111 0.289299 0.026377 0.087627
H116  H     H_    0.885919 0.364041 0.551613 0.103403
H117  H     H_    0.599948 0.831031 0.580248 0.104748
H118  H     H_    0.397778 0.835986 0.421666 0.111143
H119  H     H_    0.099948 0.331031 0.580248 0.104747
H120  H     H_    0.897778 0.335986 0.421666 0.111143
H121  H     H_    0.452441 0.990255 0.054638 0.105273
H122  H     H_    0.547734 0.990426 0.946527 0.105267
H123  H     H_    0.952442 0.490255 0.054638 0.105273
H124  H     H_    0.047734 0.490425 0.946525 0.105270
H125  H     H_    0.441561 0.966697 0.421486 0.102810
H126  H     H_    0.196991 0.738148 0.083652 0.130805
H127  H     H_    0.551090 0.957342 0.587450 0.120992
H128  H     H_    0.941561 0.466697 0.421486 0.102810
H129  H     H_    0.051090 0.457342 0.587450 0.120992
H130  H     H_    0.438804 0.982049 0.544494 0.119175
H131  H     H_    0.555512 0.984288 0.461254 0.124595
H132  H     H_    0.938804 0.482049 0.544494 0.119175
H133  H     H_    0.055512 0.484288 0.461254 0.124595
H134  H     H_    0.130293 0.623099 0.439734 0.171066
H135  H     H_    0.868910 0.629820 0.560494 0.160002
H136  H     H_    0.630293 0.123099 0.439734 0.171066
H137  H     H_    0.801058 0.739851 0.918025 0.129522
H138  H     H_    0.368910 0.129820 0.560494 0.160002
H139  H     H_    0.174690 0.782506 0.545743 0.152451
H140  H     H_    0.809161 0.793612 0.468028 0.142822
H141  H     H_    0.674690 0.282506 0.545743 0.152451
H142  H     H_    0.309161 0.293612 0.468028 0.142822
H143  H     H_    0.711159 0.940643 0.464036 0.096549
H144  H     H_    0.315339 0.969973 0.514205 0.108832
H145  H     H_    0.211159 0.440643 0.464036 0.096549
H146  H     H_    0.815339 0.469973 0.514205 0.108832
H147  H     H_    0.726715 0.985589 0.584338 0.109824
H148  H     H_    0.696992 0.238149 0.083651 0.130803
H149  H     H_    0.274816 0.988392 0.404311 0.113907
H150  H     H_    0.226715 0.485589 0.584338 0.109822
H151  H     H_    0.774816 0.488392 0.404311 0.113906
H152  H     H_    0.351330 0.615030 0.412010 0.112808
H153  H     H_    0.649276 0.580145 0.573708 0.123730
H154  H     H_    0.851330 0.115030 0.412010 0.112808
H155  H     H_    0.149276 0.080145 0.573708 0.123730
H156  H     H_    0.304581 0.739863 0.389839 0.096151
H157  H     H_    0.682419 0.709894 0.611742 0.098686
H158  H     H_    0.804581 0.239863 0.389838 0.096151
H159  H     H_    0.301055 0.239853 0.918025 0.129520
H160  H     H_    0.182418 0.209894 0.611742 0.098686
H161  H     H_    0.550629 0.647542 0.943565 0.108028
H162  H     H_    0.451321 0.647196 0.053299 0.107371
H163  H     H_    0.050629 0.147542 0.943564 0.108028
H164  H     H_    0.951321 0.147196 0.053299 0.107371
H165  H     H_    0.300981 0.796337 0.505431 0.101170
H166  H     H_    0.694033 0.789242 0.504794 0.099097
H167  H     H_    0.800981 0.296337 0.505431 0.101170
H168  H     H_    0.194033 0.289243 0.504794 0.099097
H169  H     H_    0.362730 0.689042 0.527228 0.129014
H170  H     H_    0.289110 0.722594 0.081980 0.109108
H171  H     H_    0.635695 0.687705 0.469441 0.130262
H172  H     H_    0.862730 0.189042 0.527228 0.129014
H173  H     H_    0.135695 0.187705 0.469441 0.130262
H174  H     H_    0.302726 0.457411 0.451851 0.122694
H175  H     H_    0.729860 0.425271 0.538990 0.114808
H176  H     H_    0.802726 0.957411 0.451851 0.122695
H177  H     H_    0.229860 0.925271 0.538990 0.114808
H178  H     H_    0.317435 0.505164 0.564584 0.147736
H179  H     H_    0.687005 0.505359 0.436713 0.150483
H180  H     H_    0.817435 0.005164 0.564584 0.147736
O1    O     O_R   0.214130 0.708570 0.829890 -0.539562
O2    O     O_R   0.542830 0.717300 0.331620 -0.539759
O3    O     O_R   0.957170 0.217300 0.668380 -0.539302
O4    O     O_R   0.042830 0.217300 0.331620 -0.539759
O5    O     O_R   0.320870 0.624890 0.673130 -0.514648
O6    O     O_R   0.679130 0.624890 0.326870 -0.513387
O7    O     O_R   0.820870 0.124890 0.673130 -0.514644
O8    O     O_R   0.179130 0.124890 0.326870 -0.513387
O9    O     O_3   0.334430 0.834430 0.749680 -0.292205
O10   O     O_3   0.665570 0.834430 0.250320 -0.290891
O11   O     O_3   0.834430 0.334430 0.749680 -0.292205
O12   O     O_R   0.785870 0.708570 0.170110 -0.539924
O13   O     O_3   0.165570 0.334430 0.250320 -0.290891
O14   O     O_R   0.236050 0.959150 0.825270 -0.514688
O15   O     O_R   0.763950 0.959150 0.174730 -0.515120
O16   O     O_R   0.736050 0.459150 0.825270 -0.514687
O17   O     O_R   0.263950 0.459150 0.174730 -0.515120
O18   O     O_R   0.332100 0.076650 0.832310 -0.528735
O19   O     O_R   0.667900 0.076650 0.167690 -0.530571
O20   O     O_R   0.832100 0.576650 0.832310 -0.528736
O21   O     O_R   0.167900 0.576650 0.167690 -0.530571
O22   O     O_R   0.446500 0.918620 0.826240 -0.509908
O23   O     O_R   0.714130 0.208570 0.829890 -0.539570
O24   O     O_R   0.553500 0.918620 0.173760 -0.511222
O25   O     O_R   0.946500 0.418620 0.826240 -0.509903
O26   O     O_R   0.053500 0.418620 0.173760 -0.511222
O27   O     O_R   0.457310 0.715830 0.831280 -0.526023
O28   O     O_R   0.542690 0.715830 0.168720 -0.525272
O29   O     O_R   0.957310 0.215830 0.831280 -0.526026
O30   O     O_R   0.042690 0.215830 0.168720 -0.525272
O31   O     O_R   0.321000 0.623520 0.824130 -0.510548
O32   O     O_R   0.679000 0.623520 0.175870 -0.509634
O33   O     O_R   0.821000 0.123520 0.824130 -0.510544
O34   O     O_R   0.285870 0.208570 0.170110 -0.539924
O35   O     O_R   0.179000 0.123520 0.175870 -0.509634
O36   O     O_R   0.213990 0.710040 0.667000 -0.543769
O37   O     O_R   0.786010 0.710040 0.333000 -0.538704
O38   O     O_R   0.713990 0.210040 0.667000 -0.543772
O39   O     O_R   0.286010 0.210040 0.333000 -0.538704
O40   O     O_R   0.235920 0.960520 0.674260 -0.521257
O41   O     O_R   0.764080 0.960520 0.325740 -0.532922
O42   O     O_R   0.735920 0.460520 0.674260 -0.521257
O43   O     O_R   0.264080 0.460520 0.325740 -0.532922
O44   O     O_R   0.331960 0.078120 0.669410 -0.544880
O45   O     O_R   0.446360 0.919990 0.675230 -0.519795
O46   O     O_R   0.668040 0.078120 0.330590 -0.545412
O47   O     O_R   0.831960 0.578120 0.669410 -0.544880
O48   O     O_R   0.168040 0.578120 0.330590 -0.545412
O49   O     O_R   0.553640 0.919990 0.324770 -0.514296
O50   O     O_R   0.946360 0.419990 0.675230 -0.519795
O51   O     O_R   0.053640 0.419990 0.324770 -0.514296
O52   O     O_R   0.457170 0.717300 0.668380 -0.539301

loop_
_geom_bond_atom_site_label_1
_geom_bond_atom_site_label_2
_ccdc_geom_bond_type
C39   H62   S    
C51   H88   S    
C87   O25   A    
C132  H149  S    
C77   H46   S    
C71   C137  S    
C112  H163  S    
C23   C112  S    
C96   H128  S    
C14   C21   S    
C101  H162  S    
C42   H64   S    
C113  H175  S    
C26   H29   S    
C95   C99   S    
C54   C63   S    
C33   H43   S    
C138  H169  S    
C106  H138  S    
C52   H15   S    
C41   C42   S    
Cr12  O5    S    
Cr1   O14   S    
C109  C127  S    
Cr1   O36   S    
Cr5   O12   S    
C70   C74   S    
C46   H18   S    
C42   H65   S    
Cr3   O7    S    
C14   H122  S    
Cr10  O11   S    
C69   C135  S    
C70   C136  S    
C117  C139  S    
Cr8   O18   S    
C137  O34   A    
C35   C134  S    
C117  H153  S    
C21   C90   S    
C45   C47   S    
C81   H103  S    
C59   H170  S    
C45   H78   S    
C37   C108  S    
C49   H81   S    
C144  O42   A    
C79   O21   A    
C111  H145  S    
C25   C88   S    
C17   C21   S    
C84   H111  S    
C97   H129  S    
C19   C23   S    
Cr6   O11   S    
C37   C38   S    
C9    O37   A    
C28   C104  S    
C75   H102  S    
C16   C20   S    
C11   O39   A    
C82   H105  S    
C36   H50   S    
C97   H119  S    
C52   H19   S    
Cr3   O3    S    
Cr10  O25   S    
C59   H126  S    
Cr6   O42   S    
C95   H127  S    
C83   C100  S    
Cr3   O29   S    
C114  H143  S    
C119  C141  S    
C29   H33   S    
C51   H86   S    
C61   H13   S    
C72   H99   S    
C53   C71   S    
C37   H58   S    
Cr1   O9    S    
C111  H174  S    
C8    O5    A    
Cr5   O15   S    
Cr11  O26   S    
C7    O51   A    
C1    O14   A    
C118  C140  S    
C93   H132  S    
Cr9   O46   S    
C130  H179  S    
C34   H51   S    
Cr11  O51   S    
C59   C63   S    
C29   H32   S    
C60   C64   S    
C89   H112  S    
C88   O30   A    
C32   H47   S    
C5    O49   A    
Cr9   O49   S    
C16   H124  S    
C91   C94   S    
C31   H39   S    
C13   H10   S    
Cr4   O30   S    
C110  H142  S    
C82   H109  S    
Cr4   O4    S    
C44   H71   S    
C27   H27   S    
C10   O7    A    
C125  C129  S    
C39   C109  S    
C81   C98   S    
C106  C124  S    
Cr6   O38   S    
C94   C98   S    
C119  H160  S    
C103  C107  S    
C108  C126  S    
Cr6   O16   S    
C110  C128  S    
C47   H77   S    
Cr4   O35   S    
C134  H4    S    
C130  H151  S    
C10   O38   A    
C9    O6    A    
C84   C102  S    
C69   C77   S    
C45   H80   S    
C11   O8    A    
C49   H83   S    
C43   H74   S    
C117  H157  S    
C19   C123  S    
C135  O12   A    
C64   C68   S    
C39   H63   S    
Cr2   O2    S    
C86   O28   A    
Cr2   O28   S    
C15   C25   S    
C56   H95   S    
C12   C22   S    
C32   H45   S    
C67   C72   S    
C118  C122  S    
C53   H16   S    
C60   H137  S    
C113  H146  S    
C141  H168  S    
C78   H92   S    
C87   O29   A    
C17   H1    S    
C6    C102  S    
C80   H94   S    
C121  C144  S    
Cr9   O10   S    
C122  C143  S    
C48   C72   S    
C92   C97   S    
C127  C131  S    
C115  C132  S    
C115  H177  S    
Cr7   O39   S    
C139  H171  S    
C126  C139  S    
C132  H3    S    
C113  C130  S    
C62   C66   S    
C35   H17   S    
C24   H11   S    
C135  O32   A    
C107  C125  S    
C114  H176  S    
C39   C40   S    
C31   H37   S    
C47   H76   S    
Cr1   O40   S    
C85   O27   A    
C46   H14   S    
C114  C131  S    
C61   C65   S    
C73   H100  S    
C92   H114  S    
C83   C84   S    
C139  H166  S    
C35   C67   S    
C40   H60   S    
C35   H12   S    
C140  H172  S    
C58   H22   S    
C41   H67   S    
C38   H54   S    
C25   C123  S    
C20   H115  S    
C131  H180  S    
C16   C23   S    
C30   C105  S    
C96   H120  S    
C142  O44   A    
C127  C140  S    
C105  C109  S    
Cr7   O43   S    
C18   C22   S    
C51   H87   S    
Cr6   O23   S    
Cr7   O13   S    
C125  C138  S    
C12   C14   S    
C90   H161  S    
C133  O1    A    
C89   C98   S    
Cr5   O10   S    
C15   H123  S    
C7    O4    A    
C26   H30   S    
C33   H42   S    
C96   C100  S    
C3    O43   A    
C105  C122  S    
C34   C36   S    
C55   C73   S    
C113  C121  S    
C4    C99   S    
C91   C99   S    
C42   H66   S    
C44   H70   S    
C12   H121  S    
Cr9   O24   S    
C40   H61   S    
C88   O26   A    
C82   C99   S    
C103  C120  S    
Cr10  O50   S    
C13   H6    S    
C15   C19   S    
C26   C27   S    
C22   C101  S    
C34   C107  S    
Cr4   O8    S    
C28   C29   S    
Cr10  O47   S    
C30   C31   S    
C144  O47   A    
C107  H139  S    
Cr3   O11   S    
C20   C25   S    
C126  C130  S    
C18   H93   S    
C54   H23   S    
C77   H90   S    
C79   O17   A    
C20   C112  S    
C111  C129  S    
C30   H40   S    
C62   H159  S    
C12   C17   S    
Cr4   O13   S    
C69   C73   S    
C128  C141  S    
C97   C102  S    
C24   C66   S    
C104  H135  S    
C118  H158  S    
C119  H155  S    
Cr2   O6    S    
C78   H57   S    
C48   H84   S    
Cr2   O32   S    
C41   H69   S    
C116  H152  S    
C21   C85   S    
C56   C74   S    
C7    C100  S    
C8    O36   A    
Cr12  O27   S    
C18   C90   S    
C63   C134  S    
C112  C123  S    
C57   O15   A    
C19   H104  S    
C13   C65   S    
C33   H44   S    
C34   H52   S    
C24   C53   S    
Cr9   O19   S    
C29   H31   S    
C115  H144  S    
C89   C95   S    
C37   H56   S    
C26   C103  S    
C80   H68   S    
C13   C52   S    
C129  H150  S    
C86   O24   A    
C50   C51   S    
C129  H178  S    
C44   H72   S    
C4    O45   A    
C94   H125  S    
C48   C49   S    
C62   C80   S    
C118  H154  S    
C140  H167  S    
C24   H7    S    
C50   H91   S    
Cr2   O10   S    
C104  C108  S    
C131  H147  S    
C115  C124  S    
C133  O31   A    
C123  H164  S    
Cr11  O21   S    
C83   H110  S    
C57   C65   S    
C49   H82   S    
C28   H34   S    
C93   C102  S    
C94   H118  S    
C43   H73   S    
Cr1   O1    S    
C95   H117  S    
C32   C33   S    
C62   H24   S    
C136  O33   A    
C134  H8    S    
C142  O40   A    
C36   H49   S    
C22   C86   S    
C105  H136  S    
C8    C125  S    
C138  H165  S    
C3    O48   A    
C91   H130  S    
C56   C65   S    
C68   O20   A    
C70   C78   S    
C14   C18   S    
C58   H96   S    
C43   C44   S    
C81   C82   S    
C108  H140  S    
C63   C79   S    
C119  C124  S    
C2    C46   S    
Cr7   O34   S    
Cr12  O9    S    
C61   H148  S    
C67   C133  S    
C60   H2    S    
Cr8   O22   S    
Cr5   O41   S    
C136  O23   A    
C47   H75   S    
C15   C16   S    
C117  C121  S    
C27   H28   S    
C46   C69   S    
C17   C101  S    
C6    O3    A    
C58   C66   S    
Cr10  O20   S    
Cr12  O52   S    
C92   H133  S    
C84   H107  S    
C38   H55   S    
C50   H89   S    
Cr8   O9    S    
C43   C74   S    
C23   C87   S    
C5    O2    A    
C124  C142  S    
C28   H36   S    
C2    H5    S    
C71   C80   S    
C2    C64   S    
C58   C75   S    
C116  C138  S    
C56   H21   S    
C60   C77   S    
Cr3   O33   S    
Cr8   O44   S    
C50   C73   S    
C103  H134  S    
Cr5   O37   S    
C104  C121  S    
C85   O22   A    
C111  C120  S    
C143  O46   A    
C1    O18   A    
C90   C101  S    
C2    H9    S    
C61   C78   S    
C6    O50   A    
C55   C64   S    
C1    C66   S    
C55   H25   S    
C4    O52   A    
C68   O16   A    
C116  H156  S    
C109  H141  S    
C93   C96   S    
C41   C110  S    
Cr12  O31   S    
C54   H97   S    
C10   C127  S    
C57   O19   A    
C92   C100  S    
C106  C110  S    
C74   H101  S    
C128  C132  S    
C48   H85   S    
C91   H113  S    
C31   H38   S    
C89   H131  S    
C143  O41   A    
Cr11  O48   S    
C9    C126  S    
C55   H98   S    
C45   C75   S    
C11   C128  S    
C27   H26   S    
C76   H35   S    
C71   C75   S    
C93   H116  S    
C59   C76   S    
C40   H59   S    
Cr7   O17   S    
C141  H173  S    
C76   H79   S    
C38   H53   S    
Cr8   O45   S    
C116  C120  S    
Cr11  O13   S    
C52   C70   S    
C3    C120  S    
C114  C122  S    
C30   H41   S    
C54   C72   S    
C5    C98   S    
C81   H108  S    
C83   H106  S    
C32   C106  S    
C67   C76   S    
C36   H48   S    
C53   H20   S    
C137  O35   A    
