data_mof_unit_1493.cif
_audit_creation_date              2013-03-05T15:50:15-0500
_audit_creation_method            fapswitch 2.2
_symmetry_space_group_name_H-M    P1
_symmetry_Int_Tables_number       1
_space_group_crystal_system       triclinic
_cell_length_a                    18.365223
_cell_length_b                    25.851311
_cell_length_c                    18.244041
_cell_angle_alpha                 89.642178
_cell_angle_beta                  90.216799
_cell_angle_gamma                 89.622906
_cell_volume                      8661.21392588

loop_
_atom_site_label
_atom_site_type_symbol
_atom_site_description
_atom_site_fract_x
_atom_site_fract_y
_atom_site_fract_z
_atom_type_partial_charge
Zn1   Zn    Zn3+2 0.249990 0.293780 0.913250 0.986207
Zn2   Zn    Zn3+2 0.249990 0.706220 0.086750 1.004133
Zn3   Zn    Zn3+2 0.249990 0.706220 0.913250 1.048580
Zn4   Zn    Zn3+2 0.249990 0.293780 0.086750 1.082869
Zn5   Zn    Zn3+2 0.749990 0.793780 0.413250 1.005523
Zn6   Zn    Zn3+2 0.749990 0.206220 0.586750 0.999700
Zn7   Zn    Zn3+2 0.749990 0.206220 0.413250 1.060235
Zn8   Zn    Zn3+2 0.749990 0.793780 0.586750 1.027962
Zn9   Zn    Zn3+2 0.336760 0.206240 0.000000 1.072696
Zn10  Zn    Zn3+2 0.336760 0.793760 0.000000 1.094003
Zn11  Zn    Zn3+2 0.836760 0.706240 0.500000 1.069030
Zn12  Zn    Zn3+2 0.836760 0.293760 0.500000 1.094654
Zn13  Zn    Zn3+2 0.163250 0.206230 0.000000 0.991137
Zn14  Zn    Zn3+2 0.163250 0.793770 0.000000 0.986393
Zn15  Zn    Zn3+2 0.663250 0.706230 0.500000 0.991015
Zn16  Zn    Zn3+2 0.663250 0.293770 0.500000 0.979080
O1    O     O_3   0.249990 0.250010 0.000000 -0.509263
O2    O     O_3   0.249990 0.749990 0.000000 -0.509153
O3    O     O_3   0.749990 0.750010 0.500000 -0.505433
O4    O     O_3   0.749990 0.249990 0.500000 -0.510949
O5    O     O_R   0.335430 0.280650 0.146160 -0.598296
O6    O     O_R   0.335430 0.719350 0.853840 -0.612264
O7    O     O_R   0.335430 0.719350 0.146160 -0.652832
O8    O     O_R   0.335430 0.280650 0.853840 -0.655105
O9    O     O_R   0.835430 0.780650 0.646160 -0.619111
O10   O     O_R   0.835430 0.219350 0.353840 -0.610796
O11   O     O_R   0.835430 0.219350 0.646160 -0.646293
O12   O     O_R   0.835430 0.780650 0.353840 -0.658030
O13   O     O_R   0.164550 0.280640 0.853840 -0.651179
O14   O     O_R   0.164550 0.719360 0.146160 -0.640266
O15   O     O_R   0.164550 0.719360 0.853840 -0.602000
O16   O     O_R   0.164550 0.280640 0.146160 -0.591696
O17   O     O_R   0.664550 0.780640 0.353840 -0.641606
O18   O     O_R   0.664550 0.219360 0.646160 -0.639250
O19   O     O_R   0.664550 0.219360 0.353840 -0.590759
O20   O     O_R   0.664550 0.780640 0.646160 -0.592533
O21   O     O_R   0.396160 0.219380 0.914560 -0.624357
O22   O     O_R   0.396160 0.780620 0.085440 -0.624178
O23   O     O_R   0.396160 0.780620 0.914560 -0.578114
O24   O     O_R   0.396160 0.219380 0.085440 -0.575763
O25   O     O_R   0.896160 0.719380 0.414560 -0.625233
O26   O     O_R   0.896160 0.280620 0.585440 -0.625430
O27   O     O_R   0.896160 0.280620 0.414560 -0.578763
O28   O     O_R   0.896160 0.719380 0.585440 -0.571865
O29   O     O_R   0.103840 0.219370 0.085450 -0.651775
O30   O     O_R   0.103840 0.780630 0.914550 -0.659586
O31   O     O_R   0.103840 0.780630 0.085450 -0.645566
O32   O     O_R   0.103840 0.219370 0.914550 -0.649321
O33   O     O_R   0.603840 0.719370 0.585450 -0.649890
O34   O     O_R   0.603840 0.280630 0.414550 -0.662923
O35   O     O_R   0.603840 0.280630 0.585450 -0.647559
O36   O     O_R   0.603840 0.719370 0.414550 -0.651431
O37   O     O_R   0.310730 0.133160 0.000000 -0.637576
O38   O     O_R   0.310730 0.866840 0.000000 -0.610340
O39   O     O_R   0.810730 0.633160 0.500000 -0.637822
O40   O     O_R   0.810730 0.366840 0.500000 -0.611134
O41   O     O_R   0.249970 0.366860 0.060720 -0.615842
O42   O     O_R   0.249970 0.633140 0.939280 -0.657685
O43   O     O_R   0.249970 0.633140 0.060720 -0.645551
O44   O     O_R   0.249970 0.366860 0.939280 -0.667972
O45   O     O_R   0.749970 0.866860 0.560720 -0.681129
O46   O     O_R   0.749970 0.133140 0.439280 -0.643073
O47   O     O_R   0.749970 0.133140 0.560720 -0.650830
O48   O     O_R   0.749970 0.866860 0.439280 -0.604513
O49   O     O_R   0.189290 0.133150 0.000000 -0.634305
O50   O     O_R   0.189290 0.866850 0.000000 -0.650617
O51   O     O_R   0.689290 0.633150 0.500000 -0.632985
O52   O     O_R   0.689290 0.366850 0.500000 -0.649857
C1    C     C_R   0.389020 0.249438 0.140648 0.866857
C2    C     C_R   0.390153 0.749294 0.860364 0.896865
C3    C     C_R   0.393301 0.745932 0.136722 0.881723
C4    C     C_R   0.393899 0.253812 0.863819 0.835294
C5    C     C_R   0.888846 0.749297 0.640805 0.868123
C6    C     C_R   0.889868 0.249680 0.360163 0.890880
C7    C     C_R   0.893383 0.245862 0.636588 0.888394
C8    C     C_R   0.893700 0.753821 0.363531 0.838480
C9    C     C_R   0.106800 0.253421 0.862626 0.791388
C10   C     C_R   0.106430 0.746642 0.136938 0.813382
C11   C     C_R   0.110317 0.750178 0.860142 0.792431
C12   C     C_R   0.110054 0.250457 0.139544 0.807384
C13   C     C_R   0.606826 0.753470 0.362639 0.793547
C14   C     C_R   0.606402 0.246858 0.636984 0.802992
C15   C     C_R   0.610154 0.250018 0.360325 0.789993
C16   C     C_R   0.609851 0.750810 0.639263 0.806519
C17   C     C_R   0.250493 0.109295 0.000989 0.807239
C18   C     C_R   0.249667 0.890578 0.999485 0.839828
C19   C     C_R   0.750510 0.609288 0.501034 0.809513
C20   C     C_R   0.749665 0.390574 0.499460 0.839074
C21   C     C_R   0.249142 0.391289 0.999924 0.894160
C22   C     C_R   0.247486 0.608845 0.000320 0.813356
C23   C     C_R   0.750524 0.891264 0.499865 0.785072
C24   C     C_R   0.750981 0.108768 0.500289 0.813367
C25   C     C_3   0.186041 0.469952 0.947476 -0.233000
C26   C     C_3   0.323609 0.531017 0.978787 -0.263739
C27   C     C_3   0.189449 0.530545 0.943667 -0.203874
C28   C     C_3   0.322403 0.470698 0.970975 -0.307381
C29   C     C_3   0.799953 0.968844 0.564769 -0.298513
C30   C     C_3   0.671370 0.031098 0.504219 -0.280274
C31   C     C_3   0.792721 0.029021 0.571165 -0.223945
C32   C     C_3   0.671410 0.970670 0.512681 -0.209370
H1    H     H_    0.198816 0.455772 0.891389 0.136823
H2    H     H_    0.335953 0.547491 0.923799 0.221254
H3    H     H_    0.211029 0.540374 0.888301 0.137763
H4    H     H_    0.324161 0.462153 0.911223 0.177675
H5    H     H_    0.778576 0.952636 0.617123 0.137917
H6    H     H_    0.646039 0.046954 0.554843 0.078937
H7    H     H_    0.756373 0.036673 0.618724 0.138295
H8    H     H_    0.658010 0.961979 0.570988 0.093062
H9    H     H_    0.177037 0.906041 0.880054 0.165974
H10   H     H_    0.186070 0.096693 0.877351 0.141158
H11   H     H_    0.677010 0.406043 0.380068 0.166488
H12   H     H_    0.686041 0.596694 0.377396 0.141252
H13   H     H_    0.185241 0.453360 0.104067 0.227491
H14   H     H_    0.263581 0.545578 0.121071 0.197999
H15   H     H_    0.171330 0.540677 0.094164 0.242927
H16   H     H_    0.280757 0.459139 0.115697 0.221640
H17   H     H_    0.832719 0.952105 0.411466 0.214420
H18   H     H_    0.769592 0.048078 0.380534 0.229754
H19   H     H_    0.849536 0.038595 0.433997 0.254744
H20   H     H_    0.741976 0.962427 0.380853 0.270027
C33   C     C_3   0.234750 0.470247 0.079004 -0.331418
C34   C     C_3   0.227364 0.529374 0.078104 -0.391804
C35   C     C_3   0.780255 0.970862 0.426429 -0.280784
C36   C     C_3   0.790529 0.029672 0.431666 -0.317469
C37   C     C_3   0.247946 0.449061 0.000089 0.099580
C38   C     C_3   0.246404 0.551199 0.000777 0.028867
C39   C     C_3   0.750565 0.948960 0.500125 0.066261
C40   C     C_3   0.751952 0.051127 0.501243 0.062504
H21   H     H_    0.889759 0.157399 0.945840 0.199418
H22   H     H_    0.894733 0.855719 0.062594 0.194967
H23   H     H_    0.159949 0.884953 0.681489 0.196825
H24   H     H_    0.125401 0.089553 0.275994 0.201179
H25   H     H_    0.388741 0.659765 0.447481 0.199097
H26   H     H_    0.401262 0.365422 0.570740 0.195991
H27   H     H_    0.661879 0.383597 0.181004 0.199851
H28   H     H_    0.625513 0.589279 0.773479 0.195677
C41   C     C_R   0.102920 0.327824 0.734843 -0.070939
C42   C     C_R   0.096105 0.666034 0.255088 -0.117275
C43   C     C_R   0.992759 0.679406 0.871160 -0.174142
C44   C     C_R   0.018941 0.339484 0.159725 -0.139192
C45   C     C_R   0.603817 0.827313 0.234050 -0.052071
C46   C     C_R   0.591751 0.163756 0.750135 -0.130807
C47   C     C_R   0.491870 0.179793 0.371570 -0.147788
C48   C     C_R   0.520100 0.840347 0.661498 -0.154532
C49   C     C_R   0.120889 0.347953 0.666418 -0.157802
C50   C     C_R   0.112180 0.640868 0.320817 -0.162729
C51   C     C_R   0.933013 0.647702 0.881722 -0.132029
C52   C     C_R   0.973197 0.382157 0.165622 -0.157877
C53   C     C_R   0.621961 0.846948 0.165392 -0.149257
C54   C     C_R   0.606513 0.136155 0.814180 -0.162923
C55   C     C_R   0.431766 0.148446 0.382250 -0.135433
C56   C     C_R   0.475044 0.883284 0.668492 -0.199133
C57   C     C_R   0.596237 0.823072 0.102530 -0.195003
C58   C     C_R   0.584461 0.155775 0.881223 -0.178909
C59   C     C_R   0.371925 0.153094 0.336186 -0.066505
C60   C     C_R   0.415421 0.881319 0.714582 -0.148210
C61   C     C_R   0.095536 0.324256 0.603256 -0.187666
C62   C     C_R   0.088971 0.661959 0.386557 -0.180794
C63   C     C_R   0.873104 0.652134 0.835715 -0.069177
C64   C     C_R   0.913445 0.380242 0.211546 -0.170807
C65   C     C_R   0.546519 0.782233 0.107668 0.341464
C66   C     C_R   0.541549 0.200825 0.884328 0.345950
C67   C     C_R   0.372350 0.187650 0.276894 0.343172
C68   C     C_R   0.400618 0.836640 0.755456 0.349458
C69   C     C_R   0.046336 0.283069 0.607887 0.341709
C70   C     C_R   0.043578 0.705835 0.386808 0.347031
C71   C     C_R   0.873116 0.686860 0.776616 0.347635
C72   C     C_R   0.899281 0.335940 0.253449 0.350727
C73   C     C_R   0.519403 0.767644 0.178084 -0.035059
C74   C     C_R   0.516249 0.224215 0.817610 -0.032921
C75   C     C_R   0.435853 0.217813 0.261668 -0.036202
C76   C     C_R   0.450493 0.793711 0.754718 -0.042219
C77   C     C_R   0.019328 0.267933 0.678108 -0.036034
C78   C     C_R   0.017314 0.726420 0.318692 -0.034635
C79   C     C_R   0.936234 0.717430 0.761526 -0.036039
C80   C     C_R   0.949790 0.293390 0.253750 -0.038436
C81   C     C_R   0.056921 0.284368 0.741269 0.039352
C82   C     C_R   0.053573 0.711837 0.253912 0.029036
C83   C     C_R   0.994763 0.715309 0.812284 0.051532
C84   C     C_R   0.008343 0.294655 0.203349 0.023364
C85   C     C_R   0.557265 0.784192 0.241021 0.026894
C86   C     C_R   0.551649 0.210609 0.751930 0.031895
C87   C     C_R   0.494292 0.215530 0.312529 0.057216
C88   C     C_R   0.508983 0.795148 0.704230 0.045041
C89   C     C_R   0.455523 0.738076 0.187860 -0.102627
C90   C     C_R   0.457071 0.259954 0.813725 -0.113395
C91   C     C_R   0.443701 0.249826 0.198245 -0.102305
C92   C     C_R   0.443939 0.749616 0.801668 -0.103451
C93   C     C_R   0.955783 0.237945 0.687495 -0.103538
C94   C     C_R   0.956252 0.760260 0.312707 -0.109931
C95   C     C_R   0.943503 0.749810 0.698425 -0.105639
C96   C     C_R   0.944230 0.250032 0.302127 -0.103348
C97   C     C_R   0.444486 0.711266 0.255002 0.015707
C98   C     C_R   0.450133 0.293044 0.751907 0.021809
C99   C     C_R   0.503318 0.284035 0.190792 0.010777
C100  C     C_R   0.490611 0.705890 0.793811 0.018997
C101  C     C_R   0.945117 0.210595 0.754217 0.017855
C102  C     C_R   0.947340 0.791142 0.248685 0.021363
C103  C     C_R   0.002406 0.784631 0.691356 0.029296
C104  C     C_R   0.992344 0.207015 0.296376 0.024005
C105  C     C_R   0.984586 0.225320 0.816795 0.084059
C106  C     C_R   0.985841 0.777983 0.184820 0.080811
C107  C     C_R   0.056116 0.785914 0.746512 0.070191
C108  C     C_R   0.046397 0.207108 0.241746 0.081537
C109  C     C_R   0.484189 0.726147 0.317340 0.085207
C110  C     C_R   0.487803 0.280819 0.687165 0.082302
C111  C     C_R   0.556536 0.285534 0.246412 0.069162
C112  C     C_R   0.546491 0.707214 0.741028 0.077113
C113  C     C_R   0.046190 0.257642 0.808650 -0.150971
C114  C     C_R   0.045231 0.742689 0.189855 -0.159711
C115  C     C_R   0.053383 0.749950 0.804784 -0.095397
C116  C     C_R   0.054162 0.250846 0.195952 -0.096673
C117  C     C_R   0.546236 0.757912 0.308712 -0.143395
C118  C     C_R   0.545052 0.243508 0.689836 -0.166014
C119  C     C_R   0.553245 0.249867 0.304957 -0.088743
C120  C     C_R   0.554425 0.751245 0.696053 -0.097451
C121  C     C_R   0.395509 0.669380 0.261803 -0.200357
C122  C     C_R   0.406709 0.338519 0.753107 -0.180782
C123  C     C_R   0.510167 0.317885 0.129620 -0.136535
C124  C     C_R   0.483198 0.660530 0.837592 -0.182772
C125  C     C_R   0.896621 0.168383 0.760329 -0.202372
C126  C     C_R   0.901336 0.835360 0.246630 -0.177824
C127  C     C_R   0.007929 0.819322 0.631006 -0.187739
C128  C     C_R   0.988223 0.163799 0.344662 -0.180749
C129  C     C_R   0.375262 0.649935 0.330642 0.347093
C130  C     C_R   0.389278 0.365565 0.688521 0.344299
C131  C     C_R   0.567531 0.353477 0.124909 0.372293
C132  C     C_R   0.531350 0.618499 0.830041 0.384286
C133  C     C_R   0.876518 0.148329 0.828849 0.344631
C134  C     C_R   0.882296 0.859496 0.180191 0.337931
C135  C     C_R   0.064730 0.855320 0.626302 0.339455
C136  C     C_R   0.035734 0.121213 0.337912 0.339049
C137  C     C_R   0.906471 0.170207 0.891897 -0.199008
C138  C     C_R   0.910913 0.839717 0.115205 -0.208303
C139  C     C_R   0.116036 0.857232 0.682968 -0.200272
C140  C     C_R   0.087969 0.121707 0.282585 -0.187537
C141  C     C_R   0.405489 0.672114 0.393338 -0.199982
C142  C     C_R   0.416581 0.347180 0.622151 -0.210546
C143  C     C_R   0.617721 0.356069 0.182464 -0.209000
C144  C     C_R   0.587937 0.621399 0.779837 -0.193919
C145  C     C_R   0.959886 0.208012 0.886081 -0.167680
C146  C     C_R   0.962043 0.799688 0.117364 -0.182003
C147  C     C_R   0.111762 0.823283 0.742194 -0.172035
C148  C     C_R   0.093469 0.163846 0.235484 -0.145442
C149  C     C_R   0.459387 0.709511 0.386905 -0.168151
C150  C     C_R   0.465061 0.305492 0.621344 -0.185544
C151  C     C_R   0.612337 0.322789 0.242280 -0.170966
C152  C     C_R   0.595107 0.664730 0.735460 -0.143105
H29   H     H_    0.123128 0.348075 0.782292 0.180863
H30   H     H_    0.115183 0.648175 0.205241 0.179888
H31   H     H_    0.037107 0.675680 0.910106 0.124884
H32   H     H_    0.062672 0.342324 0.120477 0.176282
H33   H     H_    0.624319 0.847727 0.281215 0.219582
H34   H     H_    0.610089 0.147150 0.699130 0.162796
H35   H     H_    0.536176 0.175934 0.410540 0.107602
H36   H     H_    0.563760 0.843327 0.622161 0.133309
H37   H     H_    0.156988 0.380788 0.662377 0.205918
H38   H     H_    0.145462 0.606156 0.320962 0.219680
H39   H     H_    0.932297 0.620616 0.927212 0.187631
H40   H     H_    0.982570 0.416215 0.132218 0.204869
H41   H     H_    0.658439 0.879540 0.160945 0.221815
H42   H     H_    0.638092 0.100690 0.812089 0.210947
H43   H     H_    0.430712 0.121493 0.427885 0.157810
H44   H     H_    0.484851 0.917619 0.635785 0.150982
H45   H     H_    0.616047 0.836065 0.049776 0.202129
H46   H     H_    0.602483 0.136412 0.930915 0.210152
H47   H     H_    0.323950 0.130244 0.347376 0.179406
H48   H     H_    0.378163 0.913961 0.715699 0.177299
H49   H     H_    0.115238 0.337661 0.550666 0.199405
H50   H     H_    0.107810 0.644607 0.437405 0.209925
H51   H     H_    0.825398 0.628978 0.846800 0.182858
H52   H     H_    0.875703 0.412618 0.211880 0.184295
H53   H     H_    0.374743 0.650184 0.213742 0.208405
H54   H     H_    0.387656 0.354013 0.804524 0.201401
H55   H     H_    0.470573 0.317433 0.085609 0.186760
H56   H     H_    0.440689 0.657180 0.878181 0.178487
H57   H     H_    0.876033 0.149500 0.711930 0.206886
H58   H     H_    0.881707 0.852410 0.296785 0.207135
H59   H     H_    0.967693 0.819177 0.587587 0.164926
H60   H     H_    0.948349 0.162810 0.388078 0.178390
H61   H     H_    0.979890 0.224546 0.936518 0.184094
H62   H     H_    0.980363 0.784784 0.065346 0.182120
H63   H     H_    0.152221 0.827001 0.784945 0.191964
H64   H     H_    0.135727 0.162097 0.194551 0.201991
H65   H     H_    0.479838 0.726214 0.437054 0.181834
H66   H     H_    0.481698 0.291690 0.568189 0.184368
H67   H     H_    0.652143 0.326881 0.285575 0.193068
H68   H     H_    0.639432 0.664365 0.696769 0.207006
H69   H     H_    0.124505 0.050426 0.780621 0.159155
H70   H     H_    0.119958 0.955053 0.782078 0.149136
H71   H     H_    0.624501 0.550433 0.280646 0.160383
H72   H     H_    0.620007 0.455049 0.282053 0.153358
C153  C     C_R   0.330995 0.051023 0.110978 -0.243526
C154  C     C_R   0.319890 0.944276 0.115905 -0.267751
C155  C     C_R   0.831807 0.550914 0.610487 -0.243469
C156  C     C_R   0.820109 0.444219 0.615740 -0.270577
C157  C     C_R   0.368461 0.023273 0.165697 0.264030
C158  C     C_R   0.362882 0.969102 0.168181 0.264688
C159  C     C_R   0.869425 0.523119 0.665068 0.268955
C160  C     C_R   0.863503 0.468973 0.667735 0.272034
C161  C     C_R   0.286210 0.971815 0.057260 0.018333
C162  C     C_R   0.289937 0.025928 0.055802 0.017219
C163  C     C_R   0.786368 0.471781 0.557152 0.017929
C164  C     C_R   0.790274 0.525884 0.555605 0.015731
C165  C     C_R   0.248932 0.946163 0.000291 -0.107616
C166  C     C_R   0.252027 0.053516 0.999799 -0.114278
C167  C     C_R   0.748928 0.446152 0.500283 -0.106585
C168  C     C_R   0.752119 0.553502 0.499777 -0.113738
C169  C     C_R   0.214064 0.973430 0.942432 0.072025
C170  C     C_R   0.215832 0.027772 0.942092 0.063527
C171  C     C_R   0.714040 0.473428 0.442450 0.071486
C172  C     C_R   0.715817 0.527768 0.442122 0.063969
C173  C     C_R   0.179082 0.947682 0.883559 -0.090449
C174  C     C_R   0.183664 0.055063 0.882249 -0.146886
C175  C     C_R   0.679055 0.447683 0.383576 -0.091869
C176  C     C_R   0.683623 0.555064 0.382298 -0.146160
C177  C     C_R   0.146461 0.975346 0.826404 -0.124912
C178  C     C_R   0.148903 0.028954 0.825655 -0.115677
C179  C     C_R   0.646460 0.475347 0.326410 -0.119574
C180  C     C_R   0.648881 0.528957 0.325686 -0.111728
H73   H     H_    0.334879 0.092500 0.112855 0.232165
H74   H     H_    0.315043 0.902795 0.120966 0.187676
H75   H     H_    0.836046 0.592364 0.612189 0.233949
H76   H     H_    0.815033 0.402760 0.620938 0.188158
C181  C     C_2   0.110210 0.448797 0.962190 0.474177
H77   H     H_    0.066652 0.457829 0.923722 0.121689
O53   O     O_2   0.096890 0.421129 0.014826 -0.628086
C182  C     C_2   0.381583 0.550423 0.031654 0.477673
H78   H     H_    0.386147 0.534136 0.086454 0.093440
O54   O     O_2   0.423126 0.584790 0.013382 -0.514297
C183  C     C_2   0.115976 0.558006 0.946458 0.352623
H79   H     H_    0.096176 0.578614 0.898264 0.105086
O55   O     O_2   0.078321 0.557191 0.001434 -0.579020
C184  C     C_2   0.390832 0.444726 0.001087 0.415206
H80   H     H_    0.441951 0.451281 0.973053 0.184487
O56   O     O_2   0.390396 0.417861 0.056345 -0.582078
C185  C     C_2   0.877698 0.948557 0.559688 0.416196
H81   H     H_    0.894924 0.916657 0.594768 0.066640
O57   O     O_2   0.920831 0.966594 0.515811 -0.457674
C186  C     C_2   0.624368 0.052039 0.441732 0.472201
H82   H     H_    0.582250 0.080441 0.453337 0.017237
O58   O     O_2   0.633461 0.038199 0.378546 -0.474929
C187  C     C_2   0.863554 0.055062 0.593153 0.559713
H83   H     H_    0.889345 0.043991 0.644583 0.065621
O59   O     O_2   0.892041 0.088219 0.555281 -0.516500
C188  C     C_2   0.610616 0.944583 0.470094 0.449313
H84   H     H_    0.555600 0.946158 0.491520 0.052004
O60   O     O_2   0.621379 0.923105 0.411701 -0.518340
N1    N     N_R   0.824763 0.106857 0.834253 0.208043
O61   O     O_R   0.805955 0.088477 0.897956 -0.363071
O62   O     O_R   0.795537 0.087308 0.775597 -0.447696
N2    N     N_R   0.832747 0.902925 0.178719 0.208519
O63   O     O_R   0.815914 0.925662 0.117037 -0.361368
O64   O     O_R   0.803411 0.919849 0.238901 -0.395659
N3    N     N_R   0.069978 0.890108 0.564597 0.232950
O65   O     O_R   0.118717 0.926439 0.563617 -0.335961
O66   O     O_R   0.027115 0.885220 0.508168 -0.298056
N4    N     N_R   0.031243 0.077643 0.387157 0.225716
O67   O     O_R   0.073925 0.037658 0.379242 -0.318075
O68   O     O_R   0.985005 0.077701 0.440899 -0.305677
N5    N     N_R   0.323233 0.608683 0.336699 0.208187
O69   O     O_R   0.303534 0.591356 0.400710 -0.367138
O70   O     O_R   0.294871 0.588141 0.278308 -0.428595
N6    N     N_R   0.342448 0.410462 0.690223 0.211547
O71   O     O_R   0.326984 0.435811 0.630235 -0.360167
O72   O     O_R   0.314374 0.426226 0.751642 -0.411009
N7    N     N_R   0.574624 0.387128 0.062214 0.230843
O73   O     O_R   0.620399 0.425349 0.063083 -0.352901
O74   O     O_R   0.537565 0.378709 0.002650 -0.335901
N8    N     N_R   0.521382 0.571924 0.871371 0.237567
O75   O     O_R   0.577604 0.546542 0.896662 -0.321934
O76   O     O_R   0.458461 0.549327 0.870019 -0.399386
N9    N     N_R   0.410050 0.050878 0.219370 0.239311
O77   O     O_R   0.406982 0.037892 0.288312 -0.337318
O78   O     O_R   0.446630 0.091709 0.200284 -0.355270
N10   N     N_R   0.403331 0.938512 0.220640 0.236957
O79   O     O_R   0.377093 0.894983 0.244724 -0.383253
O80   O     O_R   0.470769 0.949678 0.235494 -0.292392
N11   N     N_R   0.911532 0.550657 0.718412 0.232136
O81   O     O_R   0.909104 0.537602 0.787358 -0.352256
O82   O     O_R   0.948017 0.591470 0.699060 -0.373482
N12   N     N_R   0.904055 0.438314 0.720029 0.238046
O83   O     O_R   0.877583 0.394968 0.744513 -0.384708
O84   O     O_R   0.971732 0.449162 0.734247 -0.343574
N13   N     N_R   0.530606 0.752649 0.042813 0.207828
O85   O     O_R   0.541988 0.772325 0.978050 -0.380425
O86   O     O_R   0.514968 0.703727 0.048055 -0.391941
N14   N     N_R   0.532706 0.225846 0.954076 0.218075
O87   O     O_R   0.540384 0.199734 0.014883 -0.357011
O88   O     O_R   0.526040 0.275881 0.957261 -0.378904
N15   N     N_R   0.305115 0.194843 0.238436 0.160161
O89   O     O_R   0.279262 0.157169 0.199595 -0.480261
O90   O     O_R   0.261238 0.231556 0.259295 -0.378213
N16   N     N_R   0.330590 0.833732 0.789246 0.161423
O91   O     O_R   0.307467 0.871890 0.829213 -0.459319
O92   O     O_R   0.283991 0.800150 0.765143 -0.424605
N17   N     N_R   0.030876 0.253721 0.542700 0.206595
O93   O     O_R   0.042171 0.273778 0.478155 -0.380993
O94   O     O_R   0.015663 0.204704 0.547420 -0.388648
N18   N     N_R   0.032618 0.732595 0.454948 0.215383
O95   O     O_R   0.041864 0.708591 0.517253 -0.362642
O96   O     O_R   0.022995 0.782477 0.455130 -0.380778
N19   N     N_R   0.805844 0.693739 0.738146 0.161302
O97   O     O_R   0.780208 0.655848 0.699598 -0.479135
O98   O     O_R   0.761808 0.730458 0.758653 -0.379383
N20   N     N_R   0.829421 0.332978 0.287545 0.161417
O99   O     O_R   0.806178 0.371263 0.327203 -0.459136
O100  O     O_R   0.783019 0.299048 0.264051 -0.422901

loop_
_geom_bond_atom_site_label_1
_geom_bond_atom_site_label_2
_geom_bond_distance
_ccdc_geom_bond_type
C174  C178  1.392328 A    
C156  C163  1.419096 A    
C48   C88   1.416927 A    
C32   C39   1.572912 S    
C129  C141  1.397439 A    
C90   C98   1.416118 A    
C185  H81   1.085433 S    
C21   C37   1.493513 S    
C161  C162  1.401130 A    
C62   C70   1.403280 A    
O26   C7    1.292757 A    
C166  C170  1.415103 A    
C23   C39   1.491549 S    
C75   C87   1.416789 A    
N19   O98   1.300656 A    
C154  C158  1.397682 A    
C109  C149  1.415373 A    
N17   O94   1.301777 A    
O30   C11   1.276162 A    
C52   C64   1.384110 A    
C53   C57   1.388532 A    
Zn12  O26   1.926353 S    
C29   C31   1.565580 S    
C30   C186  1.522006 S    
C56   C60   1.384129 A    
N10   O80   1.301467 A    
C55   C59   1.385094 A    
C29   H5    1.114442 S    
C110  C118  1.422610 A    
C47   C55   1.387253 A    
H26   C142  1.082590 S    
C29   C185  1.521194 S    
C52   H40   1.082741 S    
O11   C7    1.281617 A    
C53   H41   1.082692 S    
O34   C15   1.275860 A    
C63   H51   1.083317 S    
C64   H52   1.083246 S    
H16   C33   1.111146 S    
C49   H37   1.082785 S    
C130  N6    1.440571 S    
C186  H82   1.085335 S    
Zn1   O44   1.950859 S    
C25   H1    1.114372 S    
C169  C173  1.420849 A    
Zn2   O43   1.950863 S    
C155  C159  1.401598 A    
H23   C139  1.082681 S    
Zn5   O48   1.950859 S    
C57   C65   1.403278 A    
Zn6   O47   1.950863 S    
Zn15  O3    1.960173 S    
Zn7   O46   1.945111 S    
O16   C12   1.278902 A    
N5    O70   1.301783 A    
C122  H54   1.080807 S    
N8    O76   1.298464 A    
C163  C164  1.401049 A    
C161  C165  1.413450 A    
Zn16  O4    1.948028 S    
N2    O63   1.301578 A    
C108  C116  1.409980 A    
C123  H55   1.081403 S    
C22   C38   1.490457 S    
C141  C149  1.392934 A    
H18   C36   1.110764 S    
C26   C28   1.567012 S    
H24   C140  1.082739 S    
C139  C147  1.390556 A    
Zn4   O16   1.941035 S    
C72   C80   1.434185 A    
N18   O96   1.300425 A    
C46   C86   1.414003 A    
H28   C144  1.083228 S    
N20   O100  1.300405 A    
Zn6   O4    1.939792 S    
C25   C181  1.523698 S    
C170  C174  1.420817 A    
C105  C145  1.415537 A    
C93   C101  1.418766 A    
C7    C93   1.484663 S    
C68   N16   1.430512 S    
C186  O58   1.220888 D    
C111  C151  1.412817 A    
C79   C83   1.416680 A    
C31   C40   1.578763 S    
C162  C166  1.419939 A    
C30   H6    1.114858 S    
Zn10  O22   1.926353 S    
O25   C8    1.284628 A    
Zn13  O29   1.936691 S    
Zn10  O2    1.960475 S    
O44   C21   1.277455 A    
C44   C84   1.416674 A    
C63   C71   1.398678 A    
C134  C138  1.397173 A    
O29   C12   1.281824 A    
C45   C85   1.414695 A    
Zn15  O33   1.936691 S    
C43   C83   1.415932 A    
N16   O91   1.300327 A    
C26   H2    1.112111 S    
C182  O54   1.220523 D    
O5    C1    1.273226 A    
O37   C17   1.270353 A    
O48   C23   1.276147 A    
C146  H62   1.080531 S    
N13   O86   1.301747 A    
N1    O61   1.301569 A    
C171  C175  1.420828 A    
Zn16  O35   1.935795 S    
C99   C123  1.420348 A    
N8    O75   1.301263 A    
C66   N14   1.440293 S    
C35   C36   1.536725 S    
C97   C121  1.417358 A    
C160  N12   1.438900 S    
Zn7   O10   1.940991 S    
O33   C16   1.283332 A    
C132  C144  1.389940 A    
C101  C125  1.417216 A    
O40   C20   1.274767 A    
C127  H59   1.081285 S    
C106  C146  1.415783 A    
C136  C140  1.395209 A    
N6    O71   1.301570 A    
C82   C114  1.418010 A    
C181  O53   1.220281 D    
C154  C161  1.419090 A    
C35   C39   1.557459 S    
C13   C117  1.485934 S    
H69   C178  1.082676 S    
Zn5   O17   1.936769 S    
C102  C106  1.407590 A    
H71   C180  1.082666 S    
H72   C179  1.082573 S    
C1    C91   1.450882 S    
C2    C92   1.459619 S    
C12   C116  1.456303 S    
C65   C73   1.428944 A    
C96   C104  1.420422 A    
C61   H49   1.082455 S    
C25   C27   1.569163 S    
C47   H35   1.082214 S    
C74   C86   1.410815 A    
C107  C115  1.409180 A    
C181  H77   1.085474 S    
H25   C141  1.082542 S    
C3    C89   1.484582 S    
C105  C113  1.418609 A    
C27   H3    1.114942 S    
C32   H8    1.114611 S    
Zn8   O3    1.951289 S    
C97   C109  1.405694 A    
C32   C188  1.521481 S    
C154  H74   1.080014 S    
C8    C94   1.488563 S    
C61   C69   1.403321 A    
O38   C18   1.274782 A    
C184  H80   1.084578 S    
C59   C67   1.398680 A    
C19   C168  1.442577 S    
C153  H73   1.075812 S    
O32   C9    1.290663 A    
C100  C112  1.410401 A    
C112  C152  1.415207 A    
C33   C37   1.562774 S    
C188  O60   1.220597 D    
C60   H48   1.083239 S    
C104  C108  1.409375 A    
Zn15  O51   1.945749 S    
Zn11  O28   1.932309 S    
Zn12  O40   1.945708 S    
N4    O68   1.299510 A    
C31   C187  1.522269 S    
C138  C146  1.393047 A    
N3    O66   1.300885 A    
C187  O59   1.219449 D    
C50   H38   1.082397 S    
C132  N8    1.429804 S    
O8    C4    1.286338 A    
C71   C79   1.433802 A    
Zn9   O1    1.948331 S    
N15   O90   1.300654 A    
C68   C76   1.434453 A    
C58   C66   1.403455 A    
N18   O95   1.301670 A    
C42   H30   1.080979 S    
O50   C18   1.270757 A    
C173  C177  1.392099 A    
C50   C62   1.387955 A    
Zn1   O1    1.939793 S    
C46   H34   1.081227 S    
Zn13  O1    1.960173 S    
Zn2   O14   1.939789 S    
C131  N7    1.439534 S    
C121  H53   1.079785 S    
C48   C56   1.386915 A    
N17   O93   1.301611 A    
C27   C38   1.571873 S    
C42   C50   1.390479 A    
C165  C169  1.414511 A    
C122  C130  1.401302 A    
O9    C5    1.272824 A    
O39   C19   1.270171 A    
O36   C13   1.291367 A    
C150  H66   1.079912 S    
C27   C183  1.521748 S    
C80   C84   1.417916 A    
O13   C9    1.286602 A    
C126  C134  1.401892 A    
Zn1   O8    1.939747 S    
Zn2   O7    1.936723 S    
C129  N5    1.440554 S    
Zn3   O6    1.940991 S    
C85   C117  1.421585 A    
O18   C14   1.288770 A    
O31   C10   1.282751 A    
O6    C2    1.278246 A    
C168  C172  1.415176 A    
Zn4   O41   1.945105 S    
C121  C129  1.402277 A    
C17   C166  1.442330 S    
N12   O83   1.301573 A    
C164  C168  1.420255 A    
C44   H32   1.080550 S    
C187  H83   1.085437 S    
N11   O81   1.301299 A    
Zn14  O30   1.932561 S    
C64   C72   1.399358 A    
C11   C115  1.451033 S    
C48   H36   1.080910 S    
Zn11  O3    1.948331 S    
O41   C21   1.272904 A    
C41   C49   1.391161 A    
C110  C150  1.416487 A    
Zn16  O34   1.932561 S    
N9    O78   1.301235 A    
C155  H75   1.075508 S    
C88   C120  1.413307 A    
Zn2   O2    1.939792 S    
C124  C132  1.404198 A    
C143  C151  1.389624 A    
Zn8   O20   1.941035 S    
C185  O57   1.220943 D    
N7    O73   1.301638 A    
N2    O64   1.301766 A    
C67   C75   1.434232 A    
C78   C82   1.410857 A    
H20   C35   1.110414 S    
C55   H43   1.082634 S    
C36   C40   1.559259 S    
C56   H44   1.082884 S    
C30   C40   1.572093 S    
C109  C117  1.417612 A    
C103  C107  1.407126 A    
Zn8   O9    1.930721 S    
C108  C148  1.414494 A    
C127  C135  1.405008 A    
C148  H64   1.079983 S    
O7    C3    1.280999 A    
C89   C97   1.419516 A    
O19   C15   1.277404 A    
C182  H78   1.085130 S    
H19   C36   1.110160 S    
C149  H65   1.081232 S    
H22   C138  1.082575 S    
Zn9   O24   1.932309 S    
Zn6   O18   1.939789 S    
Zn10  O23   1.936441 S    
C47   C87   1.415706 A    
C57   H45   1.082461 S    
C183  H79   1.085490 S    
C136  N4    1.439363 S    
C66   C74   1.430363 A    
C131  C143  1.396794 A    
C74   C90   1.423082 A    
C111  C119  1.408382 A    
C134  N2    1.440556 S    
N7    O74   1.300292 A    
Zn15  O36   1.926605 S    
O15   C11   1.277308 A    
O42   C22   1.276210 A    
C73   C85   1.410305 A    
C33   C34   1.533589 S    
N16   O92   1.300441 A    
C78   C94   1.421172 A    
Zn4   O1    1.951289 S    
C30   C32   1.568795 S    
Zn9   O37   1.951808 S    
C65   N13   1.442888 S    
O12   C8    1.282486 A    
Zn11  O39   1.951808 S    
C94   C102  1.419023 A    
N13   O85   1.301613 A    
C71   N19   1.428144 S    
H9    C173  1.079678 S    
C41   H29   1.080255 S    
Zn5   O3    1.939793 S    
C31   H7    1.114615 S    
C70   C78   1.429687 A    
C28   C184  1.520196 S    
C62   H50   1.082522 S    
C176  C180  1.392374 A    
C45   H33   1.080063 S    
C46   C54   1.390156 A    
C69   N17   1.442961 S    
C157  N9    1.435892 S    
N6    O72   1.301844 A    
C167  C171  1.414424 A    
H70   C177  1.082486 S    
C153  C157  1.401434 A    
O28   C5    1.282909 A    
C25   C37   1.575679 S    
N11   O82   1.301253 A    
C179  C180  1.386869 A    
Zn3   O42   1.945111 S    
C156  C160  1.397513 A    
C99   C111  1.407104 A    
N14   O88   1.300118 A    
Zn7   O4    1.951290 S    
O21   C4    1.280594 A    
C125  C133  1.402035 A    
C144  C152  1.385286 A    
N20   O99   1.300354 A    
C123  C131  1.405812 A    
C128  H60   1.081062 S    
H12   C176  1.080546 S    
C171  C172  1.405348 A    
C130  C142  1.397191 A    
C15   C119  1.450812 S    
C124  H56   1.081558 S    
C157  C158  1.405256 A    
Zn14  O2    1.948028 S    
C125  H57   1.079916 S    
N19   O97   1.299185 A    
C29   C39   1.575888 S    
C51   C63   1.385046 A    
C44   C52   1.387169 A    
C45   C53   1.391086 A    
N15   O89   1.299321 A    
C98   C122  1.416539 A    
Zn13  O49   1.945749 S    
C169  C170  1.405358 A    
C43   C51   1.387186 A    
Zn12  O4    1.960475 S    
C51   H39   1.082663 S    
C102  C126  1.417173 A    
C95   C103  1.417599 A    
Zn12  O27   1.936441 S    
C128  C136  1.406536 A    
C79   C95   1.426326 A    
C184  O56   1.220696 D    
C80   C96   1.426738 A    
C107  C147  1.412950 A    
C69   C77   1.428821 A    
C83   C115  1.411349 A    
C49   C61   1.388693 A    
Zn3   O2    1.951290 S    
C84   C116  1.413903 A    
C81   C113  1.421393 A    
C41   C81   1.414576 A    
C147  H63   1.080355 S    
C14   C118  1.488339 S    
C18   C165  1.437098 S    
N3    O65   1.301784 A    
O46   C24   1.275578 A    
O47   C24   1.273385 A    
C101  C105  1.405897 A    
Zn16  O52   1.951851 S    
C126  H58   1.080247 S    
C9    C113  1.486426 S    
Zn8   O45   1.945105 S    
O27   C6    1.283843 A    
C72   N20   1.430262 S    
N1    O62   1.301785 A    
H15   C34   1.108898 S    
C133  C137  1.397496 A    
C142  C150  1.393573 A    
N4    O67   1.302232 A    
C106  C114  1.419737 A    
C24   C40   1.490080 S    
Zn1   O13   1.936769 S    
C100  C124  1.422237 A    
C26   C38   1.562291 S    
C98   C110  1.407689 A    
O24   C1    1.282542 A    
C67   N15   1.428402 S    
C104  C128  1.420986 A    
C151  H67   1.080376 S    
C152  H68   1.079506 S    
C159  C160  1.405217 A    
N14   O87   1.301705 A    
C163  C167  1.413289 A    
C175  C179  1.392056 A    
C70   N18   1.440579 S    
C172  C176  1.420819 A    
H21   C137  1.082546 S    
O43   C22   1.272578 A    
O14   C10   1.285413 A    
C34   C38   1.557952 S    
Zn3   O15   1.930763 S    
Zn5   O12   1.939747 S    
C76   C88   1.418191 A    
H11   C175  1.079655 S    
Zn6   O11   1.936723 S    
C77   C81   1.410300 A    
C4    C90   1.488308 S    
C87   C119  1.411204 A    
Zn9   O21   1.935544 S    
Zn14  O50   1.951851 S    
H13   C33   1.110065 S    
C183  O55   1.220585 D    
O35   C14   1.279566 A    
C92   C100  1.422394 A    
C5    C95   1.450939 S    
C6    C96   1.458046 S    
C137  C145  1.393143 A    
C54   H42   1.082571 S    
C26   C182  1.523427 S    
C156  H76   1.080035 S    
O52   C20   1.270670 A    
C42   C82   1.414191 A    
C159  N11   1.436026 S    
N10   O79   1.301577 A    
C133  N1    1.440606 S    
C10   C114  1.488017 S    
O22   C3    1.293336 A    
N12   O84   1.301467 A    
C91   C99   1.418323 A    
Zn7   O19   1.930763 S    
C43   H31   1.082234 S    
O20   C16   1.276752 A    
C145  H61   1.081101 S    
C58   H46   1.082534 S    
Zn13  O32   1.926605 S    
C135  C139  1.397463 A    
O49   C17   1.278514 A    
Zn14  O31   1.935795 S    
N5    O69   1.301584 A    
O51   C19   1.278874 A    
C75   C91   1.426665 A    
C140  C148  1.387705 A    
C28   H4    1.114190 S    
H17   C35   1.111527 S    
C73   C89   1.415655 A    
N9    O77   1.301290 A    
Zn4   O5    1.930721 S    
C158  N10   1.438955 S    
C188  H84   1.085346 S    
O17   C13   1.285544 A    
C76   C92   1.427582 A    
C77   C93   1.415623 A    
O10   C6    1.279917 A    
O23   C2    1.286844 A    
H27   C143  1.082757 S    
C28   C37   1.573750 S    
Zn11  O25   1.935544 S    
C177  C178  1.386833 A    
Zn10  O38   1.945708 S    
H14   C34   1.111833 S    
O45   C23   1.273643 A    
C103  C127  1.420040 A    
C60   C68   1.399622 A    
C20   C167  1.436932 S    
C112  C120  1.407681 A    
C54   C58   1.387850 A    
C86   C118  1.416658 A    
H10   C174  1.080553 S    
C153  C162  1.418316 A    
C135  N3    1.440365 S    
C59   H47   1.083326 S    
C16   C120  1.455251 S    
C155  C164  1.418381 A    
