data_mof_unit_3556.cif
_audit_creation_date              2012-12-11T14:28:16-0500
_audit_creation_method            fapswitch 2.2
_symmetry_space_group_name_H-M    P1
_symmetry_Int_Tables_number       1
_space_group_crystal_system       triclinic
_cell_length_a                    10.869766
_cell_length_b                    19.947672
_cell_length_c                    18.618442
_cell_angle_alpha                 91.239037
_cell_angle_beta                  89.413383
_cell_angle_gamma                 90.042379
_cell_volume                      4035.81612316

loop_
_atom_site_label
_atom_site_type_symbol
_atom_type_description
_atom_site_fract_x
_atom_site_fract_y
_atom_site_fract_z
_atom_type_partial_charge
C1    C     C_R   0.322517 0.966852 0.646004 0.539968
C2    C     C_R   0.315332 0.937219 0.862520 0.532050
C3    C     C_R   0.318065 0.033245 0.354452 0.534803
C4    C     C_R   0.316152 0.063500 0.137371 0.536640
C5    C     C_R   0.822517 0.466852 0.646004 0.539971
C6    C     C_R   0.815332 0.437219 0.862520 0.532052
C7    C     C_R   0.818065 0.533245 0.354452 0.534804
C8    C     C_R   0.816152 0.563500 0.137371 0.536642
C9    C     C_3   0.163478 0.708539 0.470432 -0.124010
C10   C     C_3   0.133969 0.692233 0.015521 -0.122777
C11   C     C_3   0.048388 0.316599 0.505549 -0.125786
C12   C     C_3   0.161548 0.270732 0.963083 -0.122385
C13   C     C_3   0.663486 0.208537 0.470432 -0.124023
C14   C     C_3   0.633970 0.192233 0.015522 -0.122777
C15   C     C_3   0.548381 0.816603 0.505548 -0.125790
C16   C     C_3   0.661547 0.770732 0.963084 -0.122385
C17   C     C_3   0.045623 0.733365 0.434678 0.059046
C18   C     C_3   0.044492 0.731729 0.064182 0.052141
C19   C     C_3   0.034699 0.264767 0.564063 0.043733
C20   C     C_3   0.028662 0.271707 0.937122 0.050867
C21   C     C_3   0.545634 0.233366 0.434676 0.059040
C22   C     C_3   0.544492 0.231729 0.064182 0.052141
C23   C     C_3   0.534686 0.764769 0.564061 0.043710
C24   C     C_3   0.528661 0.771707 0.937122 0.050861
C25   C     C_R   0.318090 0.005895 0.426828 -0.038184
C26   C     C_R   0.321052 0.041607 0.061673 -0.045859
C27   C     C_R   0.336598 0.996527 0.575522 -0.036447
C28   C     C_R   0.320910 0.961714 0.936567 -0.042046
C29   C     C_R   0.818090 0.505895 0.426828 -0.038182
C30   C     C_R   0.821052 0.541607 0.061673 -0.045859
C31   C     C_R   0.836598 0.496527 0.575522 -0.036448
C32   C     C_R   0.820910 0.461714 0.936567 -0.042046
C33   C     C_R   0.533173 0.967512 0.411694 -0.094373
C34   C     C_R   0.548364 0.051331 0.049714 -0.120271
C35   C     C_R   0.562546 0.968457 0.559403 -0.114171
C36   C     C_R   0.550358 0.965567 0.934763 -0.094840
C37   C     C_R   0.033170 0.467509 0.411693 -0.094372
C38   C     C_R   0.048364 0.551331 0.049714 -0.120272
C39   C     C_R   0.062545 0.468453 0.559401 -0.114171
C40   C     C_R   0.050358 0.465567 0.934763 -0.094840
C41   C     C_R   0.648858 0.956471 0.440240 -0.129205
C42   C     C_R   0.656504 0.039289 0.011577 -0.144418
C43   C     C_R   0.664145 0.958415 0.513988 -0.162350
C44   C     C_R   0.656083 0.000136 0.950750 -0.151723
C45   C     C_R   0.148855 0.456468 0.440237 -0.129205
C46   C     C_R   0.156504 0.539289 0.011577 -0.144417
C47   C     C_R   0.164143 0.458413 0.513985 -0.162349
C48   C     C_R   0.156083 0.500136 0.950750 -0.151723
C49   C     C_R   0.442907 0.982955 0.531548 -0.015809
C50   C     C_R   0.434674 0.982852 0.966131 -0.010524
C51   C     C_R   0.431240 0.985823 0.456263 -0.015778
C52   C     C_R   0.434299 0.024835 0.027441 -0.019923
C53   C     C_R   0.942906 0.482953 0.531547 -0.015807
C54   C     C_R   0.934674 0.482852 0.966131 -0.010524
C55   C     C_R   0.931239 0.485820 0.456262 -0.015777
C56   C     C_R   0.934299 0.524835 0.027441 -0.019924
C57   C     C_R   0.228555 0.022626 0.546116 -0.002928
C58   C     C_R   0.208314 0.977692 0.971733 -0.005095
C59   C     C_R   0.211196 0.016674 0.472193 0.000211
C60   C     C_R   0.208096 0.024386 0.028340 -0.005380
C61   C     C_R   0.728556 0.522627 0.546116 -0.002929
C62   C     C_R   0.708314 0.477693 0.971733 -0.005095
C63   C     C_R   0.711196 0.516674 0.472193 0.000212
C64   C     C_R   0.708096 0.524387 0.028340 -0.005381
C65   C     C_R   0.132895 0.049983 0.590539 -0.086466
C66   C     C_R   0.094383 0.946947 0.953009 -0.105674
C67   C     C_R   0.086956 0.024038 0.447598 -0.100317
C68   C     C_R   0.092482 0.047469 0.054993 -0.083844
C69   C     C_R   0.632897 0.549984 0.590539 -0.086472
C70   C     C_R   0.594382 0.446947 0.953009 -0.105674
C71   C     C_R   0.586956 0.524038 0.447598 -0.100321
C72   C     C_R   0.592481 0.547470 0.054993 -0.083844
C73   C     C_R   0.014082 0.056868 0.565318 -0.121838
C74   C     C_R   0.985984 0.962905 0.989553 -0.153344
C75   C     C_R   0.990330 0.041767 0.494050 -0.163349
C76   C     C_R   0.986699 0.011147 0.043140 -0.135608
C77   C     C_R   0.514083 0.556869 0.565318 -0.121839
C78   C     C_R   0.485984 0.462905 0.989553 -0.153344
C79   C     C_R   0.490330 0.541766 0.494051 -0.163347
C80   C     C_R   0.486699 0.511147 0.043140 -0.135608
C81   C     C_R   0.138391 0.759634 0.642978 0.524460
C82   C     C_R   0.134980 0.760455 0.856641 0.520971
C83   C     C_R   0.178398 0.231221 0.363719 0.544403
C84   C     C_R   0.138171 0.239939 0.142499 0.525357
C85   C     C_R   0.638389 0.259633 0.642979 0.524475
C86   C     C_R   0.634981 0.260455 0.856641 0.520970
C87   C     C_R   0.678390 0.731223 0.363719 0.544389
C88   C     C_R   0.638171 0.739939 0.142499 0.525342
C89   C     C_R   0.498817 0.784989 0.637418 0.560145
C90   C     C_R   0.499458 0.786191 0.862534 0.528732
C91   C     C_R   0.507429 0.217237 0.362306 0.538064
C92   C     C_R   0.507548 0.215975 0.137409 0.524325
C93   C     C_R   0.998822 0.284988 0.637418 0.560134
C94   C     C_R   0.999458 0.286191 0.862534 0.528728
C95   C     C_R   0.007424 0.717236 0.362306 0.538081
C96   C     C_R   0.007548 0.715975 0.137409 0.524326
C97   C     C_3   0.059383 0.801918 0.470849 0.015691
C98   C     C_3   0.092999 0.798412 0.038001 0.025118
C99   C     C_3   0.165945 0.240052 0.551073 0.025254
C100  C     C_3   0.001496 0.206575 0.976381 0.027931
C101  C     C_3   0.559397 0.301919 0.470847 0.015687
C102  C     C_3   0.592999 0.298412 0.038001 0.025119
C103  C     C_3   0.665928 0.740049 0.551069 0.025244
C104  C     C_3   0.501495 0.706576 0.976381 0.027931
C105  C     C_3   0.177186 0.778180 0.508014 -0.112312
C106  C     C_3   0.181917 0.759623 0.988103 -0.132895
C107  C     C_3   0.182689 0.293090 0.492146 -0.105376
C108  C     C_3   0.134000 0.205194 0.003431 -0.131977
C109  C     C_3   0.677198 0.278179 0.508014 -0.112303
C110  C     C_3   0.681918 0.259623 0.988104 -0.132894
C111  C     C_3   0.682679 0.793089 0.492145 -0.105380
C112  C     C_3   0.634000 0.705194 0.003432 -0.131975
C113  C     C_3   0.096548 0.753062 0.569852 0.064676
C114  C     C_3   0.084143 0.756339 0.929104 0.056642
C115  C     C_3   0.132144 0.241928 0.437030 0.047777
C116  C     C_3   0.093088 0.247723 0.069575 0.051023
C117  C     C_3   0.596553 0.253063 0.569851 0.064691
C118  C     C_3   0.584143 0.256339 0.929104 0.056642
C119  C     C_3   0.632127 0.741932 0.437026 0.047803
C120  C     C_3   0.593087 0.747724 0.069575 0.051028
C121  C     C_3   0.979721 0.778662 0.534115 -0.133620
C122  C     C_3   0.995100 0.797587 0.977896 -0.136870
C123  C     C_3   0.117376 0.188984 0.494671 -0.137153
C124  C     C_3   0.960374 0.247745 0.043984 -0.158679
C125  C     C_3   0.479730 0.278665 0.534112 -0.133614
C126  C     C_3   0.495101 0.297587 0.977896 -0.136870
C127  C     C_3   0.617352 0.688986 0.494665 -0.137147
C128  C     C_3   0.460373 0.747745 0.043984 -0.158678
C129  C     C_3   0.965702 0.708848 0.496489 -0.132387
C130  C     C_3   0.946068 0.730517 0.006199 -0.144932
C131  C     C_3   0.983307 0.212912 0.509386 -0.117153
C132  C     C_3   0.987275 0.313727 0.003297 -0.156357
C133  C     C_3   0.465709 0.208852 0.496485 -0.132393
C134  C     C_3   0.446068 0.230517 0.006199 -0.144932
C135  C     C_3   0.483286 0.712917 0.509382 -0.117157
C136  C     C_3   0.487275 0.813727 0.003297 -0.156358
C137  C     C_3   0.083410 0.685193 0.533082 0.011251
C138  C     C_3   0.034309 0.691014 0.956333 0.029051
C139  C     C_3   0.000789 0.265151 0.450255 0.019690
C140  C     C_3   0.120479 0.312312 0.029479 0.037053
C141  C     C_3   0.583412 0.185195 0.533082 0.011248
C142  C     C_3   0.534309 0.191014 0.956334 0.029051
C143  C     C_3   0.500774 0.765158 0.450252 0.019703
C144  C     C_3   0.620478 0.812312 0.029479 0.037054
Cr1   Cr    Cr6+3 0.488160 0.884660 0.750000 0.952947
Cr2   Cr    Cr6+3 0.488160 0.115340 0.250000 0.964625
Cr3   Cr    Cr6+3 0.988160 0.384660 0.750000 0.952930
Cr4   Cr    Cr6+3 0.988160 0.615340 0.250000 0.964629
Cr5   Cr    Cr6+3 0.173480 0.883120 0.750000 0.976565
Cr6   Cr    Cr6+3 0.173480 0.116880 0.250000 0.962380
Cr7   Cr    Cr6+3 0.673480 0.383120 0.750000 0.976566
Cr8   Cr    Cr6+3 0.673480 0.616880 0.250000 0.962371
Cr9   Cr    Cr6+3 0.333410 0.727260 0.750000 0.963492
Cr10  Cr    Cr6+3 0.333410 0.272740 0.250000 0.964164
Cr11  Cr    Cr6+3 0.833410 0.227260 0.750000 0.963489
Cr12  Cr    Cr6+3 0.833410 0.772740 0.250000 0.964159
H1    H     H_    0.260455 0.808398 0.519937 0.098039
H2    H     H_    0.273792 0.775676 0.971783 0.102796
H3    H     H_    0.260558 0.327146 0.481270 0.110133
H4    H     H_    0.191871 0.159697 0.002103 0.089562
H5    H     H_    0.760471 0.308394 0.519934 0.098043
H6    H     H_    0.773792 0.275677 0.971783 0.102796
H7    H     H_    0.760551 0.827143 0.481271 0.110134
H8    H     H_    0.691870 0.659697 0.002103 0.089563
H9    H     H_    0.940863 0.074100 0.600970 0.113420
H10   H     H_    0.901242 0.938772 0.975791 0.091996
H11   H     H_    0.897517 0.045791 0.473994 0.103454
H12   H     H_    0.905400 0.022280 0.074540 0.097989
H13   H     H_    0.440865 0.574102 0.600970 0.113421
H14   H     H_    0.401242 0.438772 0.975791 0.091996
H15   H     H_    0.397517 0.545790 0.473996 0.103458
H16   H     H_    0.405400 0.522280 0.074541 0.097989
H17   H     H_    0.913810 0.813919 0.559162 0.109881
H18   H     H_    0.930149 0.834446 0.957207 0.087787
H19   H     H_    0.160873 0.140530 0.484726 0.137643
H20   H     H_    0.881283 0.234894 0.079084 0.108199
H21   H     H_    0.413820 0.313922 0.559156 0.109878
H22   H     H_    0.430149 0.334446 0.957207 0.087787
H23   H     H_    0.660844 0.640531 0.484716 0.137650
H24   H     H_    0.381282 0.734895 0.079084 0.108198
H25   H     H_    0.883382 0.677808 0.484911 0.088154
H26   H     H_    0.854288 0.717169 0.024051 0.096212
H27   H     H_    0.902866 0.180293 0.519407 0.114402
H28   H     H_    0.923874 0.356869 0.004603 0.096470
H29   H     H_    0.383389 0.177811 0.484905 0.088147
H30   H     H_    0.354288 0.217169 0.024051 0.096211
H31   H     H_    0.402847 0.680299 0.519404 0.114399
H32   H     H_    0.423873 0.856869 0.004603 0.096470
H33   H     H_    0.234347 0.676470 0.444212 0.116966
H34   H     H_    0.205331 0.660678 0.038193 0.103082
H35   H     H_    0.995584 0.362544 0.508230 0.136893
H36   H     H_    0.241800 0.282105 0.928430 0.113009
H37   H     H_    0.734351 0.176461 0.444221 0.116955
H38   H     H_    0.705331 0.160678 0.038193 0.103082
H39   H     H_    0.495580 0.862548 0.508232 0.136896
H40   H     H_    0.741799 0.782106 0.928430 0.113011
H41   H     H_    0.726244 0.944801 0.405108 0.111861
H42   H     H_    0.741546 0.058520 0.030877 0.093138
H43   H     H_    0.754192 0.949731 0.536339 0.108437
H44   H     H_    0.740589 0.989637 0.921539 0.102614
H45   H     H_    0.226241 0.444798 0.405105 0.111862
H46   H     H_    0.241546 0.558520 0.030877 0.093138
H47   H     H_    0.254190 0.449728 0.536335 0.108438
H48   H     H_    0.240589 0.489637 0.921539 0.102614
H49   H     H_    0.524435 0.960388 0.354266 0.130083
H50   H     H_    0.557917 0.083498 0.094387 0.184869
H51   H     H_    0.585095 0.969292 0.615302 0.160664
H52   H     H_    0.564370 0.923738 0.899826 0.182243
H53   H     H_    0.024432 0.460385 0.354264 0.130083
H54   H     H_    0.057917 0.583498 0.094387 0.184869
H55   H     H_    0.085095 0.469287 0.615300 0.160668
H56   H     H_    0.064370 0.423738 0.899826 0.182246
H57   H     H_    0.056996 0.011433 0.394244 0.154948
H58   H     H_    0.083298 0.091092 0.089476 0.164760
H59   H     H_    0.148711 0.063382 0.646337 0.122679
H60   H     H_    0.088840 0.906547 0.914419 0.169134
H61   H     H_    0.556995 0.511433 0.394244 0.154947
H62   H     H_    0.583298 0.591092 0.089476 0.164762
H63   H     H_    0.648715 0.563384 0.646337 0.122676
H64   H     H_    0.588839 0.406548 0.914418 0.169134
O1    O     O_R   0.575450 0.828820 0.667950 -0.530298
O2    O     O_R   0.575450 0.828820 0.832050 -0.561200
O3    O     O_R   0.575450 0.171180 0.332050 -0.531469
O4    O     O_R   0.575450 0.171180 0.167950 -0.564283
O5    O     O_R   0.075450 0.328820 0.667950 -0.530329
O6    O     O_R   0.075450 0.328820 0.832050 -0.561226
O7    O     O_R   0.075450 0.671180 0.332050 -0.531439
O8    O     O_R   0.075450 0.671180 0.167950 -0.564284
O9    O     O_R   0.416860 0.942890 0.674680 -0.529568
O10   O     O_R   0.416860 0.942890 0.825320 -0.522635
O11   O     O_R   0.416860 0.057110 0.325320 -0.505473
O12   O     O_R   0.416860 0.057110 0.174680 -0.522443
O13   O     O_R   0.916860 0.442890 0.674680 -0.529564
O14   O     O_R   0.916860 0.442890 0.825320 -0.522632
O15   O     O_R   0.916860 0.557110 0.325320 -0.505477
O16   O     O_R   0.916860 0.557110 0.174680 -0.522444
O17   O     O_R   0.213790 0.953680 0.668330 -0.510709
O18   O     O_R   0.213790 0.953680 0.831670 -0.525598
O19   O     O_R   0.213790 0.046320 0.331670 -0.542101
O20   O     O_R   0.213790 0.046320 0.168330 -0.520941
O21   O     O_R   0.713790 0.453680 0.668330 -0.510707
O22   O     O_R   0.713790 0.453680 0.831670 -0.525598
O23   O     O_R   0.713790 0.546320 0.331670 -0.542098
O24   O     O_R   0.713790 0.546320 0.168330 -0.520941
O25   O     O_R   0.121360 0.817890 0.672660 -0.513695
O26   O     O_R   0.121360 0.817890 0.827340 -0.549071
O27   O     O_R   0.121360 0.182110 0.327340 -0.511164
O28   O     O_R   0.121360 0.182110 0.172660 -0.548966
O29   O     O_R   0.621360 0.317890 0.672660 -0.513692
O30   O     O_R   0.621360 0.317890 0.827340 -0.549073
O31   O     O_R   0.621360 0.682110 0.327340 -0.511192
O32   O     O_R   0.621360 0.682110 0.172660 -0.548978
O33   O     O_R   0.206850 0.711370 0.665820 -0.535508
O34   O     O_R   0.206850 0.711370 0.834180 -0.539867
O35   O     O_R   0.206850 0.288630 0.334180 -0.533940
O36   O     O_R   0.206850 0.288630 0.165820 -0.537205
O37   O     O_R   0.706850 0.211370 0.665820 -0.535506
O38   O     O_R   0.706850 0.211370 0.834180 -0.539866
O39   O     O_R   0.706850 0.788630 0.334180 -0.533937
O40   O     O_R   0.706850 0.788630 0.165820 -0.537206
O41   O     O_R   0.457710 0.733190 0.672630 -0.510410
O42   O     O_R   0.457710 0.733190 0.827370 -0.510726
O43   O     O_R   0.457710 0.266810 0.327370 -0.517754
O44   O     O_R   0.457710 0.266810 0.172630 -0.502998
O45   O     O_R   0.957710 0.233190 0.672630 -0.510410
O46   O     O_R   0.957710 0.233190 0.827370 -0.510731
O47   O     O_R   0.957710 0.766810 0.327370 -0.517752
O48   O     O_R   0.957710 0.766810 0.172630 -0.502996
O49   O     O_3   0.331690 0.831680 0.750000 -0.304454
O50   O     O_3   0.331690 0.168320 0.250000 -0.310130
O51   O     O_3   0.831690 0.331680 0.750000 -0.304449
O52   O     O_3   0.831690 0.668320 0.250000 -0.310129
C145  C     C_3   0.037255 0.867531 0.434019 -0.268460
C146  C     C_3   0.125252 0.877995 0.370405 -0.403637
H65   H     H_    0.144381 0.831307 0.339375 0.175128
H66   H     H_    0.085793 0.914248 0.332691 0.141418
H67   H     H_    0.213990 0.897071 0.389814 0.130996
H68   H     H_    0.940744 0.869291 0.415227 0.151692
H69   H     H_    0.048532 0.906489 0.476079 0.159155
C147  C     C_3   0.128199 0.854191 0.092844 -0.247190
C148  C     C_3   0.222777 0.833981 0.148846 -0.422342
H70   H     H_    0.208549 0.782693 0.168595 0.182726
H71   H     H_    0.317041 0.837753 0.126110 0.132273
H72   H     H_    0.217261 0.869440 0.195588 0.149327
H73   H     H_    0.170954 0.895612 0.065356 0.167471
H74   H     H_    0.043581 0.873390 0.120066 0.172769
C149  C     C_3   0.239549 0.211624 0.614603 -0.257514
C150  C     C_3   0.294677 0.261872 0.668964 -0.383734
H75   H     H_    0.292390 0.314101 0.650161 0.174766
H76   H     H_    0.244028 0.259708 0.721014 0.185068
H77   H     H_    0.391150 0.248495 0.680339 0.116282
H78   H     H_    0.177451 0.178172 0.644897 0.152044
H79   H     H_    0.311706 0.178593 0.593642 0.127487
C151  C     C_3   0.930594 0.146092 0.946391 -0.255725
C152  C     C_3   0.005457 0.101500 0.893844 -0.379976
H80   H     H_    0.023820 0.124975 0.841771 0.180004
H81   H     H_    0.095766 0.088653 0.916250 0.168225
H82   H     H_    0.953271 0.054780 0.882246 0.135400
H83   H     H_    0.900854 0.116802 0.992469 0.120799
H84   H     H_    0.845693 0.162655 0.920284 0.192024
C153  C     C_3   0.537270 0.367531 0.434015 -0.268462
C154  C     C_3   0.625272 0.377994 0.370403 -0.403638
H85   H     H_    0.644389 0.331308 0.339367 0.175129
H86   H     H_    0.585825 0.414257 0.332692 0.141421
H87   H     H_    0.714015 0.397062 0.389816 0.130995
H88   H     H_    0.440760 0.369290 0.415220 0.151697
H89   H     H_    0.548542 0.406489 0.476075 0.159154
C155  C     C_3   0.628198 0.354191 0.092844 -0.247193
C156  C     C_3   0.722776 0.333982 0.148846 -0.422341
H90   H     H_    0.708541 0.282697 0.168601 0.182735
H91   H     H_    0.817040 0.337749 0.126107 0.132274
H92   H     H_    0.717268 0.369447 0.195585 0.149329
H93   H     H_    0.670952 0.395613 0.065356 0.167472
H94   H     H_    0.543579 0.373390 0.120066 0.172770
C157  C     C_3   0.739521 0.711612 0.614598 -0.257487
C158  C     C_3   0.794700 0.761855 0.668945 -0.383738
H95   H     H_    0.891207 0.748502 0.680248 0.116302
H96   H     H_    0.792336 0.814091 0.650170 0.174821
H97   H     H_    0.744164 0.759652 0.721025 0.184932
H98   H     H_    0.677400 0.678181 0.644903 0.152079
H99   H     H_    0.811644 0.678560 0.593636 0.127455
C159  C     C_3   0.430593 0.646092 0.946391 -0.255725
C160  C     C_3   0.505457 0.601500 0.893844 -0.379976
H100  H     H_    0.523819 0.624975 0.841771 0.180004
H101  H     H_    0.595766 0.588654 0.916251 0.168225
H102  H     H_    0.453270 0.554780 0.882246 0.135400
H103  H     H_    0.400853 0.616802 0.992470 0.120799
H104  H     H_    0.345692 0.662655 0.920285 0.192024
C161  C     C_3   0.104998 0.619243 0.568198 -0.254587
C162  C     C_3   0.025510 0.609424 0.636135 -0.391250
H105  H     H_    0.019471 0.653631 0.672197 0.160625
H106  H     H_    0.930454 0.598592 0.621834 0.123300
H107  H     H_    0.062527 0.568429 0.668641 0.137520
H108  H     H_    0.083919 0.583514 0.524960 0.169015
H109  H     H_    0.203942 0.613633 0.581055 0.154970
C163  C     C_3   0.982473 0.636908 0.904567 -0.249681
C164  C     C_3   0.910005 0.663849 0.841215 -0.442106
H110  H     H_    0.846374 0.704299 0.859104 0.146535
H111  H     H_    0.972007 0.682545 0.798616 0.157958
H112  H     H_    0.854590 0.622623 0.816773 0.149880
H113  H     H_    0.057736 0.604392 0.883598 0.184912
H114  H     H_    0.914444 0.608084 0.934604 0.160152
C165  C     C_3   0.917665 0.288144 0.388992 -0.271877
C166  C     C_3   0.876408 0.232156 0.337129 -0.392683
H115  H     H_    0.929342 0.234495 0.285950 0.176710
H116  H     H_    0.887903 0.181811 0.360363 0.166556
H117  H     H_    0.778542 0.239099 0.323264 0.150208
H118  H     H_    0.836779 0.312983 0.412318 0.127334
H119  H     H_    0.966693 0.327185 0.358091 0.158511
C167  C     C_3   0.195544 0.372153 0.057199 -0.239456
C168  C     C_3   0.125806 0.414455 0.114263 -0.376242
H120  H     H_    0.033241 0.426866 0.094973 0.167263
H121  H     H_    0.110038 0.389189 0.165629 0.175945
H122  H     H_    0.179027 0.460519 0.127094 0.128203
H123  H     H_    0.286570 0.356305 0.077163 0.172556
H124  H     H_    0.219277 0.401606 0.010904 0.127587
C169  C     C_3   0.604994 0.119244 0.568198 -0.254588
C170  C     C_3   0.525503 0.109428 0.636135 -0.391254
H125  H     H_    0.519459 0.153636 0.672192 0.160619
H126  H     H_    0.430449 0.098591 0.621833 0.123295
H127  H     H_    0.562522 0.068435 0.668645 0.137524
H128  H     H_    0.583911 0.083516 0.524960 0.169018
H129  H     H_    0.703937 0.113631 0.581056 0.154971
C171  C     C_3   0.482473 0.136908 0.904568 -0.249681
C172  C     C_3   0.410006 0.163849 0.841215 -0.442103
H130  H     H_    0.346376 0.204299 0.859103 0.146536
H131  H     H_    0.472011 0.182543 0.798617 0.157955
H132  H     H_    0.354591 0.122622 0.816774 0.149882
H133  H     H_    0.557736 0.104391 0.883599 0.184913
H134  H     H_    0.414443 0.108084 0.934605 0.160151
C173  C     C_3   0.417646 0.788159 0.388994 -0.271913
C174  C     C_3   0.376438 0.732189 0.337099 -0.392656
H135  H     H_    0.429497 0.734512 0.285958 0.176807
H136  H     H_    0.387813 0.681837 0.360341 0.166534
H137  H     H_    0.278621 0.739177 0.323150 0.150124
H138  H     H_    0.336734 0.812969 0.412322 0.127369
H139  H     H_    0.466652 0.827223 0.358116 0.158472
C175  C     C_3   0.695543 0.872153 0.057199 -0.239456
C176  C     C_3   0.625806 0.914455 0.114264 -0.376241
H140  H     H_    0.533241 0.926866 0.094973 0.167263
H141  H     H_    0.610038 0.889189 0.165629 0.175944
H142  H     H_    0.679027 0.960519 0.127095 0.128203
H143  H     H_    0.786570 0.856305 0.077164 0.172557
H144  H     H_    0.719277 0.901606 0.010904 0.127587

loop_
_geom_bond_atom_site_label_1
_geom_bond_atom_site_label_2
_ccdc_geom_bond_type
C6    C32   S    
Cr1   O10   S    
C169  C170  S    
C7    C29   S    
C119  C143  S    
Cr4   O52   S    
C120  C144  S    
C110  C118  S    
C164  H110  S    
C36   C50   A    
Cr10  O44   S    
C153  C154  S    
C148  H72   S    
C4    O12   A    
C92   O4    A    
C16   C144  S    
Cr8   O24   S    
C57   C59   A    
Cr1   O1    S    
C8    O24   A    
C58   C60   A    
C174  H135  S    
C62   C70   A    
C170  H127  S    
C146  H65   S    
C61   C63   A    
C147  H73   S    
C20   C94   S    
Cr10  O43   S    
C121  H17   S    
C49   C51   A    
C34   C42   A    
C84   O36   A    
C50   C52   A    
C161  H108  S    
C23   C89   S    
C128  H24   S    
C88   O32   A    
C97   C105  S    
C14   H38   S    
C19   C131  S    
C73   C75   A    
C42   C44   A    
C20   C132  S    
C9    H33   S    
C21   C133  S    
C116  C140  S    
Cr3   O6    S    
Cr10  O35   S    
C45   C47   A    
C112  H8    S    
C46   C48   A    
C115  C123  S    
C162  H105  S    
C160  H100  S    
C150  H77   S    
C42   H42   S    
C27   C57   A    
C87   O39   A    
C112  C120  S    
Cr11  O38   S    
C144  C175  S    
C29   C55   A    
C30   C56   A    
C139  C165  S    
C158  H95   S    
C100  C124  S    
C15   C111  S    
C4    C26   S    
C104  C128  S    
C12   C20   S    
C168  H121  S    
C13   C21   S    
C85   C117  S    
C19   C99   S    
Cr11  O45   S    
C73   H9    S    
C63   C71   A    
C113  C137  S    
C18   C130  S    
C33   C51   A    
C80   H16   S    
C37   C45   A    
C130  C138  S    
C164  H112  S    
C91   O43   A    
C39   C47   A    
C40   C48   A    
Cr9   O33   S    
C133  C141  S    
C163  C164  S    
C24   C90   S    
C28   C58   A    
C72   H62   S    
C145  H68   S    
C98   C106  S    
C174  H137  S    
C61   C69   A    
C8    C30   S    
C172  H130  S    
C10   C18   S    
C76   H12   S    
C167  C168  S    
C95   O7    A    
C2    C28   S    
C155  H93   S    
C32   C62   A    
C93   O5    A    
C129  C137  S    
C126  C134  S    
C173  H138  S    
C83   O27   A    
C10   C138  S    
C81   O33   A    
C175  C176  S    
Cr10  O50   S    
C96   O48   A    
C14   C142  S    
C85   O29   A    
Cr5   O26   S    
C134  H30   S    
C69   C77   A    
C168  H120  S    
Cr4   O8    S    
Cr6   O50   S    
C71   C79   A    
C110  H6    S    
C168  H122  S    
C152  H81   S    
Cr6   O28   S    
C33   H49   S    
C157  H98   S    
C74   C76   A    
C158  H97   S    
C96   O8    A    
C105  C113  S    
C65   H59   S    
C89   O1    A    
C78   C80   A    
C153  H89   S    
C9    C105  S    
C66   C74   A    
Cr4   O16   S    
C78   H14   S    
C103  C157  S    
C171  C172  S    
C124  C132  S    
C111  C119  S    
C36   H52   S    
C104  C159  S    
C97   C121  S    
C59   C67   A    
C159  H104  S    
C35   C49   A    
C62   C64   A    
C126  H22   S    
Cr9   O41   S    
C133  H29   S    
C24   C136  S    
C135  C143  S    
C6    O14   A    
C84   C116  S    
C136  H32   S    
C9    C137  S    
C135  H31   S    
Cr7   O30   S    
C143  C173  S    
Cr2   O11   S    
C156  H91   S    
C154  H86   S    
C100  C108  S    
C82   O26   A    
C39   H55   S    
C83   C115  S    
C147  C148  S    
C41   H41   S    
C172  H132  S    
C3    O11   A    
C104  C112  S    
C88   O40   A    
C176  H142  S    
C1    O17   A    
C122  H18   S    
C149  H79   S    
C160  H101  S    
C150  H76   S    
C171  H133  S    
C87   C119  S    
Cr7   O21   S    
Cr2   O4    S    
C95   O47   A    
Cr12  O48   S    
C57   C65   A    
C38   H54   S    
C170  H126  S    
C140  C167  S    
C15   C143  S    
C44   H44   S    
C40   C54   A    
C10   C106  S    
C67   C75   A    
Cr8   O32   S    
C14   C110  S    
Cr1   O9    S    
C102  C126  S    
C123  H19   S    
C124  H20   S    
C103  C111  S    
C148  H71   S    
C102  C155  S    
C48   H48   S    
C84   O28   A    
Cr4   O15   S    
C127  H23   S    
C14   C22   S    
C151  H83   S    
C72   C80   A    
C98   C147  S    
C11   C107  S    
C167  H123  S    
C100  C151  S    
C174  H136  S    
C146  H66   S    
C114  C138  S    
C66   H60   S    
C90   O42   A    
C147  H74   S    
C38   C46   A    
C131  C139  S    
C2    O10   A    
C37   C55   A    
Cr3   O14   S    
C38   C56   A    
C166  H115  S    
C22   C92   S    
C149  H78   S    
C6    O22   A    
C25   C59   A    
C17   C97   S    
C27   C49   A    
C119  C127  S    
C169  H129  S    
C29   C63   A    
C173  H139  S    
C30   C64   A    
C146  H67   S    
C41   C43   A    
C31   C61   A    
C138  C163  S    
Cr9   O34   S    
Cr3   O5    S    
C109  C117  S    
C176  H140  S    
Cr10  O36   S    
C11   C19   S    
C162  H106  S    
C127  C135  S    
C128  C136  S    
C151  C152  S    
Cr11  O37   S    
C93   O45   A    
C101  C109  S    
C173  C174  S    
C158  H96   S    
C79   H15   S    
C175  H143  S    
C11   C139  S    
C86   O38   A    
Cr3   O51   S    
C131  H27   S    
C105  H1    S    
C162  H107  S    
C12   C140  S    
C17   C95   S    
C13   C141  S    
C88   C120  S    
C68   H58   S    
C19   C93   S    
Cr12  O39   S    
C15   H39   S    
C77   C79   A    
C159  C160  S    
C157  C158  S    
C45   H45   S    
C13   H37   S    
C12   H36   S    
C32   C54   A    
C164  H111  S    
C7    O15   A    
C3    C25   S    
Cr8   O23   S    
C152  H80   S    
Cr1   O2    S    
C83   O35   A    
C87   O31   A    
C16   H40   S    
C134  C142  S    
C107  H3    S    
C149  C150  S    
C20   C100  S    
C166  H117  S    
Cr2   O50   S    
C142  C171  S    
Cr5   O18   S    
C4    O20   A    
C47   H47   S    
C86   C118  S    
C145  H69   S    
C155  H94   S    
C8    O16   A    
C23   C103  S    
C22   C134  S    
Cr6   O20   S    
C102  C110  S    
C68   C76   A    
C91   O3    A    
C74   H10   S    
C16   C112  S    
C12   C108  S    
C21   C91   S    
Cr5   O25   S    
C116  C124  S    
C123  C131  S    
C69   H63   S    
C121  C129  S    
C103  C127  S    
Cr11  O51   S    
C120  C128  S    
Cr12  O52   S    
C99   C149  S    
C132  C140  S    
C99   C107  S    
C40   H56   S    
C34   C52   A    
C71   H61   S    
C23   C135  S    
C33   C41   A    
C108  C116  S    
Cr5   O49   S    
C136  C144  S    
C132  H28   S    
C39   C53   A    
C153  H88   S    
C165  H119  S    
Cr11  O46   S    
C94   O6    A    
C141  C169  S    
C46   H46   S    
C60   C68   A    
C81   C113  S    
Cr5   O17   S    
C82   O34   A    
C3    O19   A    
C86   O30   A    
C165  C166  S    
C70   C78   A    
C18   C96   S    
C161  C162  S    
C117  C141  S    
Cr7   O29   S    
Cr2   O12   S    
C156  H90   S    
C34   H50   S    
C154  H87   S    
C10   H34   S    
C106  C114  S    
C90   O2    A    
C172  H131  S    
C176  H141  S    
C65   C73   A    
Cr1   O49   S    
C171  H134  S    
C28   C50   A    
C58   C66   A    
C163  H114  S    
C11   H35   S    
C21   C101  S    
C15   C23   S    
C13   C109  S    
C16   C24   S    
C5    O13   A    
C165  H118  S    
Cr4   O7    S    
C152  H82   S    
C53   C55   A    
C161  H109  S    
Cr6   O27   S    
C94   O46   A    
C54   C56   A    
C17   C129  S    
C81   O25   A    
C37   H53   S    
C111  H7    S    
C82   C114  S    
C130  H26   S    
C2    O18   A    
C148  H70   S    
C106  H2    S    
C70   H64   S    
C24   C104  S    
C25   C51   A    
C151  H84   S    
C163  H113  S    
C26   C52   A    
C101  C125  S    
C159  H103  S    
C167  H124  S    
C125  C133  S    
C145  C146  S    
C113  C121  S    
C92   O44   A    
C31   C53   A    
Cr9   O42   S    
C107  C115  S    
C137  C161  S    
C98   C122  S    
Cr3   O13   S    
C9    C17   S    
C166  H116  S    
C125  H21   S    
C67   H57   S    
Cr6   O19   S    
C35   C43   A    
C155  C156  S    
C99   C123  S    
C156  H92   S    
C35   H51   S    
C169  H128  S    
C129  H25   S    
C154  H85   S    
C101  C153  S    
Cr9   O49   S    
C115  C139  S    
C118  C142  S    
C75   H11   S    
C108  H4    S    
C118  C126  S    
C22   C102  S    
C85   O37   A    
C160  H102  S    
C5    O21   A    
C150  H75   S    
C109  H5    S    
C157  H99   S    
Cr7   O22   S    
Cr2   O3    S    
Cr7   O51   S    
Cr12  O47   S    
C26   C60   A    
Cr8   O52   S    
C64   C72   A    
C175  H144  S    
C170  H125  S    
C36   C44   A    
C114  C122  S    
C1    O9    A    
C89   O41   A    
C77   H13   S    
C7    O23   A    
C1    C27   S    
C43   H43   S    
C18   C98   S    
Cr12  O40   S    
C117  C125  S    
C97   C145  S    
C122  C130  S    
Cr8   O31   S    
C5    C31   S    
