data_mof_unit_4464.cif
_audit_creation_date              2012-12-11T15:08:48-0500
_audit_creation_method            fapswitch 2.2
_symmetry_space_group_name_H-M    P1
_symmetry_Int_Tables_number       1
_space_group_crystal_system       triclinic
_cell_length_a                    21.798158
_cell_length_b                    21.556576
_cell_length_c                    22.996897
_cell_angle_alpha                 89.670576
_cell_angle_beta                  89.767376
_cell_angle_gamma                 90.101893
_cell_volume                      10805.8106496

loop_
_atom_site_label
_atom_site_type_symbol
_atom_type_description
_atom_site_fract_x
_atom_site_fract_y
_atom_site_fract_z
_atom_type_partial_charge
C1    C     C_R   0.918047 0.153554 0.090130 0.742122
C2    C     C_R   0.085066 0.157474 0.079502 0.831054
C3    C     C_R   0.162331 0.675607 0.214575 0.120810
C4    C     C_R   0.308238 0.216496 0.825636 0.160495
C5    C     C_R   0.677443 0.705760 0.115864 0.177254
C6    C     C_R   0.173138 0.662033 0.804275 0.156165
C7    C     C_R   0.701028 0.299049 0.150618 0.169507
C8    C     C_R   0.204779 0.253549 0.323052 0.128259
C9    C     C_R   0.845809 0.736439 0.643030 0.123706
C10   C     C_R   0.235753 0.829293 0.365827 0.177742
C11   C     C_R   0.822416 0.318465 0.695272 0.135095
C12   C     C_R   0.819201 0.650951 0.277280 0.151852
C13   C     C_R   0.156303 0.915301 0.918111 0.894148
C14   C     C_R   0.237668 0.164529 0.625163 0.171466
C15   C     C_R   0.697146 0.157090 0.322190 0.141622
C16   C     C_R   0.215883 0.817178 0.647891 0.174735
C17   C     C_R   0.858413 0.139470 0.106512 -0.387547
C18   C     C_R   0.143823 0.855358 0.902688 -0.409544
C19   C     C_R   0.146069 0.146630 0.089403 -0.392678
C20   C     C_R   0.871840 0.867133 0.876591 -0.264747
C21   C     C_R   0.118659 0.877631 0.134034 -0.289246
C22   C     C_R   0.858248 0.147150 0.903019 -0.393866
C23   C     C_R   0.856065 0.852867 0.095632 -0.397334
C24   C     C_R   0.845142 0.081748 0.085908 0.797017
C25   C     C_R   0.117141 0.116825 0.862197 -0.261260
C26   C     C_R   0.358039 0.640730 0.605954 -0.369994
C27   C     C_R   0.644718 0.354170 0.405876 -0.387097
C28   C     C_R   0.645795 0.645498 0.593458 -0.375104
C29   C     C_R   0.382297 0.380151 0.364805 -0.264828
C30   C     C_R   0.622626 0.377202 0.632454 -0.289535
C31   C     C_R   0.357339 0.640941 0.397535 -0.331733
C32   C     C_R   0.358038 0.354848 0.599317 -0.389025
C33   C     C_R   0.623521 0.622992 0.367678 -0.323210
C34   C     C_R   0.865404 0.827340 0.779643 0.686509
C35   C     C_R   0.067345 0.139887 0.892044 0.701967
C36   C     C_R   0.164497 0.173521 0.188132 0.668872
C37   C     C_R   0.853741 0.211952 0.818505 0.724524
C38   C     C_R   0.149365 0.868509 0.234758 0.698967
C39   C     C_R   0.152588 0.126128 0.762975 0.735302
C40   C     C_R   0.850563 0.772987 0.167975 0.737752
C41   C     C_R   0.172408 0.855586 0.801040 0.677654
C42   C     C_R   0.799322 0.137490 0.194178 0.718221
C43   C     C_R   0.371435 0.333857 0.270916 0.710913
C44   C     C_R   0.674365 0.660955 0.692150 0.650446
C45   C     C_R   0.292556 0.652226 0.315291 0.690427
C46   C     C_R   0.915216 0.842029 0.078213 0.867875
C47   C     C_R   0.638691 0.355401 0.734934 0.691157
C48   C     C_R   0.628088 0.654849 0.265829 0.725747
C49   C     C_R   0.345586 0.309127 0.692979 0.705349
C50   C     C_R   0.666282 0.347389 0.303299 0.657534
C51   C     C_R   0.286670 0.639643 0.685834 0.740408
C52   C     C_R   0.841936 0.826114 0.836241 -0.005530
C53   C     C_R   0.182375 0.179404 0.130135 -0.000900
C54   C     C_R   0.824785 0.193194 0.870227 -0.013580
C55   C     C_R   0.145189 0.842060 0.179691 -0.016757
C56   C     C_R   0.153256 0.148692 0.819712 -0.016270
C57   C     C_R   0.844690 0.085767 0.915851 0.752077
C58   C     C_R   0.819431 0.804627 0.123601 -0.027866
C59   C     C_R   0.171809 0.824080 0.854609 -0.059762
C60   C     C_R   0.816716 0.171477 0.144704 -0.009900
C61   C     C_R   0.348799 0.341223 0.326926 -0.027410
C62   C     C_R   0.684392 0.677405 0.634058 0.022071
C63   C     C_R   0.313788 0.677948 0.366739 -0.002504
C64   C     C_R   0.656936 0.346826 0.677204 0.001030
C65   C     C_R   0.656416 0.651190 0.320258 -0.044527
C66   C     C_R   0.324547 0.312839 0.635907 -0.009017
C67   C     C_R   0.673209 0.321665 0.358963 -0.020639
C68   C     C_R   0.142638 0.928252 0.104740 0.763765
C69   C     C_R   0.314485 0.675044 0.641575 -0.024880
C70   C     C_R   0.805984 0.776031 0.857013 0.125250
C71   C     C_R   0.238677 0.205093 0.113407 0.159810
C72   C     C_R   0.774465 0.225970 0.893541 0.068110
C73   C     C_R   0.155707 0.778701 0.169823 0.139708
C74   C     C_R   0.200777 0.186332 0.840177 0.073703
C75   C     C_R   0.761041 0.784524 0.103920 0.038317
C76   C     C_R   0.180697 0.760006 0.858356 0.157111
C77   C     C_R   0.786624 0.226656 0.128270 0.057607
C78   C     C_R   0.301346 0.304166 0.349170 0.112797
C79   C     C_R   0.418274 0.653558 0.590293 0.717147
C80   C     C_R   0.738835 0.706570 0.615226 0.145722
C81   C     C_R   0.284935 0.729363 0.391753 0.154842
C82   C     C_R   0.715413 0.325116 0.662541 0.129599
C83   C     C_R   0.719704 0.659762 0.326767 0.129822
C84   C     C_R   0.285121 0.268302 0.612067 0.104452
C85   C     C_R   0.691815 0.260386 0.367597 0.158591
C86   C     C_R   0.294124 0.735988 0.628407 0.035114
C87   C     C_3   0.774551 0.638290 0.888730 -0.363602
C88   C     C_3   0.801989 0.574176 0.877013 -0.864537
C89   C     C_3   0.375898 0.185524 0.101251 -0.402943
C90   C     C_R   0.584745 0.342675 0.420025 0.761075
C91   C     C_3   0.417114 0.135680 0.128073 -0.778641
C92   C     C_3   0.711889 0.346681 0.941165 -0.416933
C93   C     C_3   0.723979 0.416624 0.937473 -0.901953
C94   C     C_3   0.112561 0.644806 0.178354 -0.325117
C95   C     C_3   0.069457 0.604010 0.214860 -0.898491
C96   C     C_3   0.333488 0.190633 0.882629 -0.430855
C97   C     C_3   0.385145 0.144234 0.871436 -0.779061
C98   C     C_3   0.666935 0.687065 0.052889 -0.409433
C99   C     C_3   0.660646 0.616667 0.046399 -0.897087
C100  C     C_3   0.119750 0.632502 0.837237 -0.379538
C101  C     C_R   0.657050 0.585237 0.579012 0.737308
C102  C     C_3   0.065308 0.621292 0.796779 -0.835725
C103  C     C_3   0.671785 0.303800 0.090848 -0.410941
C104  C     C_3   0.601747 0.299282 0.093551 -0.915188
C105  C     C_3   0.164627 0.291594 0.364323 -0.417074
C106  C     C_3   0.107778 0.317639 0.333992 -0.826607
C107  C     C_3   0.878997 0.707836 0.590935 -0.391690
C108  C     C_3   0.932690 0.666404 0.608964 -0.816728
C109  C     C_3   0.282746 0.870236 0.396642 -0.440597
C110  C     C_3   0.316990 0.911812 0.353166 -0.793570
C111  C     C_3   0.850628 0.362147 0.650024 -0.396606
C112  C     C_R   0.084158 0.843321 0.917957 0.721844
C113  C     C_R   0.358058 0.429530 0.394844 0.694506
C114  C     C_3   0.872964 0.421862 0.678648 -0.786462
C115  C     C_3   0.845168 0.595405 0.310061 -0.367938
C116  C     C_3   0.858362 0.541752 0.268592 -0.843830
C117  C     C_3   0.259047 0.134860 0.568657 -0.395424
C118  C     C_3   0.285088 0.069770 0.578821 -0.875952
C119  C     C_3   0.652088 0.123801 0.362675 -0.404916
C120  C     C_3   0.593956 0.105509 0.329865 -0.793499
C121  C     C_3   0.194028 0.831694 0.586541 -0.417661
C122  C     C_3   0.123921 0.834340 0.583541 -0.895822
C123  C     C_3   0.778297 0.779478 0.917864 -0.419913
C124  C     C_R   0.570854 0.356144 0.604629 0.746807
C125  C     C_3   0.825709 0.766501 0.965475 -0.808662
C126  C     C_3   0.247925 0.228445 0.051227 -0.402472
C127  C     C_3   0.203887 0.281663 0.037584 -0.830583
C128  C     C_3   0.738587 0.198600 0.944736 -0.329828
C129  C     C_3   0.680824 0.165576 0.923806 -0.696537
C130  C     C_3   0.182633 0.757714 0.111319 -0.412079
C131  C     C_3   0.136749 0.744751 0.062571 -0.741179
C132  C     C_3   0.190565 0.227724 0.892981 -0.379029
C133  C     C_3   0.154584 0.285613 0.875521 -0.752149
C134  C     C_3   0.723824 0.824687 0.062068 -0.296755
C135  C     C_R   0.415914 0.655833 0.414799 0.754902
C136  C     C_3   0.675177 0.861842 0.094716 -0.684607
C137  C     C_3   0.200579 0.730708 0.915903 -0.295198
C138  C     C_3   0.266407 0.706738 0.912395 -0.897419
C139  C     C_3   0.814557 0.268272 0.081104 -0.324466
C140  C     C_3   0.851349 0.321054 0.108069 -0.695237
C141  C     C_3   0.301516 0.283548 0.412884 -0.364020
C142  C     C_3   0.333877 0.221120 0.419296 -0.791640
C143  C     C_3   0.743207 0.732209 0.553180 -0.431011
C144  C     C_3   0.691752 0.777817 0.538672 -0.736988
C145  C     C_3   0.283183 0.736934 0.457257 -0.474087
C146  C     C_R   0.344975 0.415628 0.585862 0.784359
C147  C     C_3   0.248689 0.683394 0.486914 -0.723102
C148  C     C_3   0.727261 0.296296 0.602995 -0.396331
C149  C     C_3   0.690590 0.236315 0.596200 -0.809990
C150  C     C_3   0.746321 0.678700 0.385658 -0.280554
C151  C     C_3   0.770746 0.745190 0.383763 -0.927711
C152  C     C_3   0.249463 0.284123 0.557062 -0.345947
C153  C     C_3   0.184514 0.305190 0.572042 -0.802415
C154  C     C_3   0.713816 0.239177 0.427392 -0.367758
C155  C     C_3   0.769679 0.276466 0.447032 -0.847805
C156  C     C_3   0.333581 0.780098 0.592111 -0.315971
C157  C     C_R   0.643612 0.570848 0.396278 0.688041
C158  C     C_3   0.372329 0.821573 0.631202 -0.667111
C159  C     C_3   0.129026 0.164915 0.316053 -0.309146
C160  C     C_3   0.150091 0.097249 0.318418 -0.757366
C161  C     C_3   0.936757 0.807292 0.667683 -0.291886
C162  C     C_3   0.990276 0.785873 0.705980 -0.786573
C163  C     C_3   0.155075 0.914129 0.361183 -0.281854
C164  C     C_3   0.125535 0.897406 0.419649 -0.998695
C165  C     C_3   0.926423 0.272362 0.720334 -0.285619
C166  C     C_3   0.934187 0.221954 0.674421 -0.790022
C167  C     C_3   0.925024 0.687956 0.245481 -0.285085
C168  C     C_R   0.433288 0.359489 0.393429 0.704130
C169  C     C_3   0.945202 0.729134 0.295876 -0.782725
C170  C     C_3   0.143431 0.095757 0.634533 -0.304415
C171  C     C_3   0.083297 0.131724 0.630056 -0.806186
C172  C     C_3   0.740486 0.054779 0.285611 -0.289834
C173  C     C_3   0.791892 0.040392 0.328605 -0.778206
C174  C     C_3   0.190203 0.924067 0.686436 -0.319175
C175  C     C_3   0.244698 0.959648 0.711629 -0.731019
C176  C     C_3   0.671657 0.596610 0.809398 -0.299658
C177  C     C_3   0.684533 0.535868 0.776994 -0.744313
C178  C     C_3   0.445902 0.279422 0.173706 -0.323689
C179  C     C_R   0.584705 0.656657 0.582719 0.822559
C180  C     C_3   0.488173 0.253832 0.221361 -0.769679
C181  C     C_3   0.601146 0.364710 0.862428 -0.291237
C182  C     C_3   0.551696 0.314888 0.857469 -0.827238
C183  C     C_3   0.216674 0.573147 0.235256 -0.361548
C184  C     C_3   0.200612 0.532542 0.288011 -0.655648
C185  C     C_3   0.394480 0.294598 0.815457 -0.289246
C186  C     C_3   0.369598 0.354739 0.841383 -0.783870
C187  C     C_3   0.568726 0.680330 0.148500 -0.325767
C188  C     C_3   0.533594 0.735230 0.174066 -0.727616
C189  C     C_3   0.209278 0.558058 0.765274 -0.276091
C190  C     C_R   0.656623 0.414861 0.419103 0.861253
C191  C     C_3   0.253879 0.535466 0.811923 -0.787020
C192  C     C_3   0.664643 0.405234 0.182568 -0.273444
C193  C     C_3   0.715353 0.450590 0.199887 -0.800162
C194  C     C_R   0.344973 0.582499 0.585237 0.791172
C195  C     C_R   0.571835 0.644379 0.395871 0.764892
C196  C     C_R   0.157212 0.085711 0.077736 0.764054
C197  C     C_R   0.416739 0.342958 0.582263 0.807866
C198  C     C_R   0.345091 0.581548 0.414410 0.768552
C199  C     C_R   0.643486 0.429020 0.603579 0.658837
C200  C     C_R   0.790102 0.728521 0.817496 -0.030331
C201  C     C_R   0.280734 0.218578 0.157543 -0.032050
C202  C     C_R   0.752210 0.277457 0.861333 -0.009998
C203  C     C_R   0.163342 0.740781 0.218591 -0.045182
C204  C     C_R   0.251951 0.194284 0.804478 0.017807
C205  C     C_R   0.734316 0.732146 0.132086 -0.015214
C206  C     C_R   0.181291 0.726745 0.806319 -0.004292
C207  C     C_R   0.851733 0.921896 0.901834 0.715245
C208  C     C_R   0.738152 0.247465 0.164339 -0.010240
C209  C     C_R   0.264928 0.273268 0.309026 -0.008820
C210  C     C_R   0.785323 0.716654 0.656962 -0.035759
C211  C     C_R   0.247264 0.765371 0.355708 -0.042980
C212  C     C_R   0.758953 0.321681 0.706604 -0.002963
C213  C     C_R   0.755411 0.660385 0.276393 0.005971
C214  C     C_R   0.269472 0.216606 0.646843 -0.005519
C215  C     C_R   0.696115 0.222420 0.318572 -0.026614
C216  C     C_R   0.243441 0.759213 0.660032 -0.014495
C217  C     C_R   0.178234 0.206785 0.289176 0.210400
C218  C     C_R   0.066344 0.859318 0.106681 0.683565
C219  C     C_R   0.876513 0.774997 0.683765 0.198773
C220  C     C_R   0.187838 0.858336 0.334987 0.235052
C221  C     C_R   0.858957 0.283581 0.734108 0.188563
C222  C     C_R   0.855421 0.687173 0.239122 0.173780
C223  C     C_R   0.193720 0.135327 0.661678 0.174726
C224  C     C_R   0.730664 0.124527 0.279375 0.187652
C225  C     C_R   0.197238 0.854166 0.695280 0.187696
C226  C     C_R   0.716198 0.648451 0.791929 0.196301
C227  C     C_R   0.378296 0.264380 0.185552 0.201965
C228  C     C_R   0.662732 0.340779 0.840640 0.185005
C229  C     C_R   0.917019 0.157786 0.919882 0.828303
C230  C     C_R   0.206062 0.642059 0.246996 0.194176
C231  C     C_R   0.342823 0.256364 0.789280 0.177274
C232  C     C_R   0.637222 0.685261 0.160733 0.185027
C233  C     C_R   0.207301 0.628744 0.762513 0.170709
C234  C     C_R   0.682311 0.338231 0.196430 0.179043
C235  C     C_R   0.849856 0.780750 0.740287 -0.152716
C236  C     C_R   0.199966 0.200356 0.231260 -0.153777
C237  C     C_R   0.830609 0.261093 0.786008 -0.189161
C238  C     C_R   0.170516 0.832260 0.281216 -0.214986
C239  C     C_R   0.195788 0.148462 0.722441 -0.206819
C240  C     C_R   0.844459 0.914916 0.084659 0.715842
C241  C     C_R   0.824358 0.722164 0.195561 -0.198668
C242  C     C_R   0.188956 0.824235 0.750299 -0.171838
C243  C     C_R   0.752970 0.158803 0.230525 -0.184140
C244  C     C_R   0.347706 0.286736 0.236202 -0.168260
C245  C     C_R   0.719342 0.671860 0.733814 -0.140852
C246  C     C_R   0.239480 0.675227 0.290033 -0.160827
C247  C     C_R   0.678237 0.337644 0.780319 -0.193852
C248  C     C_R   0.662717 0.673207 0.216785 -0.198308
C249  C     C_R   0.324409 0.262214 0.729983 -0.183067
C250  C     C_R   0.683779 0.313631 0.254238 -0.160174
C251  C     C_R   0.140343 0.067732 0.893234 0.711688
C252  C     C_R   0.238794 0.663632 0.718754 -0.192231
C253  C     C_R   0.805446 0.736924 0.758294 -0.047085
C254  C     C_R   0.257451 0.225813 0.214512 -0.051184
C255  C     C_R   0.774885 0.287625 0.804762 -0.043344
C256  C     C_R   0.182580 0.768954 0.270387 -0.031570
C257  C     C_R   0.244789 0.184914 0.744464 -0.044286
C258  C     C_R   0.762771 0.708154 0.182234 -0.037309
C259  C     C_R   0.195250 0.758942 0.754436 -0.057862
C260  C     C_R   0.728657 0.218060 0.218532 -0.044489
C261  C     C_R   0.290739 0.260505 0.253769 -0.050998
C262  C     C_R   0.926710 0.851768 0.901121 0.707432
C263  C     C_R   0.771254 0.706492 0.716272 -0.047197
C264  C     C_R   0.220671 0.735572 0.307116 -0.054088
C265  C     C_R   0.738130 0.318128 0.764482 -0.049376
C266  C     C_R   0.727158 0.677742 0.223901 -0.056461
C267  C     C_R   0.281669 0.219245 0.706826 -0.046914
C268  C     C_R   0.700750 0.250859 0.263242 -0.054168
C269  C     C_R   0.223291 0.726437 0.709614 -0.038428
C270  C     C_R   0.757676 0.673547 0.833198 0.120096
C271  C     C_R   0.344547 0.225777 0.147317 0.124381
C272  C     C_R   0.705799 0.317706 0.881405 0.179817
F1    F     F_    0.946314 0.208923 0.096285 -0.618886
F2    F     F_    0.059074 0.214303 0.076270 -0.618152
F3    F     F_    0.213641 0.937651 0.926638 -0.605080
F4    F     F_    0.787996 0.057898 0.080561 -0.617521
F5    F     F_    0.037035 0.192742 0.879287 -0.633747
F6    F     F_    0.937667 0.785175 0.064788 -0.633168
F7    F     F_    0.787764 0.060781 0.917177 -0.614608
F8    F     F_    0.197354 0.955711 0.114810 -0.602589
F9    F     F_    0.449602 0.706123 0.601430 -0.625770
F10   F     F_    0.561657 0.285134 0.429753 -0.628350
F11   F     F_    0.713804 0.561943 0.569185 -0.623450
F12   F     F_    0.061398 0.785500 0.926425 -0.635072
F13   F     F_    0.300438 0.451529 0.388609 -0.634981
F14   F     F_    0.541311 0.302279 0.616014 -0.624035
F15   F     F_    0.437322 0.714379 0.421241 -0.622958
F16   F     F_    0.288298 0.441033 0.586098 -0.613695
F17   F     F_    0.696456 0.540234 0.385640 -0.639976
F18   F     F_    0.462292 0.305237 0.383505 -0.652037
F19   F     F_    0.559140 0.713699 0.581163 -0.616266
F20   F     F_    0.713771 0.437394 0.428255 -0.627062
F21   F     F_    0.288099 0.557744 0.580440 -0.614410
F22   F     F_    0.543996 0.699359 0.386009 -0.606947
F23   F     F_    0.213746 0.061197 0.069532 -0.618811
F24   F     F_    0.439324 0.285396 0.572635 -0.618771
F25   F     F_    0.288013 0.557918 0.422015 -0.636674
F26   F     F_    0.697573 0.458044 0.612807 -0.644616
F27   F     F_    0.901012 0.876353 0.763562 -0.707651
F28   F     F_    0.109763 0.146020 0.200276 -0.711821
F29   F     F_    0.900874 0.177059 0.797861 -0.697247
F30   F     F_    0.142291 0.930923 0.239313 -0.702865
F31   F     F_    0.109334 0.083318 0.749254 -0.687646
F32   F     F_    0.903520 0.797785 0.188684 -0.686371
F33   F     F_    0.154924 0.915979 0.799717 -0.693939
F34   F     F_    0.795032 0.946538 0.896517 -0.617238
F35   F     F_    0.832916 0.086699 0.208874 -0.708654
F36   F     F_    0.417042 0.372203 0.252256 -0.701255
F37   F     F_    0.619338 0.635431 0.706694 -0.716009
F38   F     F_    0.324054 0.604162 0.291614 -0.702513
F39   F     F_    0.582692 0.380757 0.744740 -0.695714
F40   F     F_    0.567741 0.639769 0.262445 -0.687396
F41   F     F_    0.383704 0.354752 0.711625 -0.698807
F42   F     F_    0.640341 0.404414 0.298677 -0.713015
F43   F     F_    0.312529 0.584462 0.700729 -0.694012
F44   F     F_    0.030164 0.811123 0.122563 -0.638327
F45   F     F_    0.940212 0.214753 0.931589 -0.624480
F46   F     F_    0.789873 0.943750 0.090230 -0.628579
F47   F     F_    0.195569 0.040989 0.884144 -0.615635
F48   F     F_    0.955611 0.796825 0.894870 -0.637738
H1    H     H_    0.765705 0.538663 0.872438 0.257388
H2    H     H_    0.401694 0.214370 0.069332 0.171094
H3    H     H_    0.211086 0.715464 0.117527 0.188683
H4    H     H_    0.183144 0.315421 0.846537 0.227409
H5    H     H_    0.111940 0.273308 0.852154 0.303702
H6    H     H_    0.142200 0.312506 0.914861 0.252542
H7    H     H_    0.166413 0.202557 0.928498 0.194592
H8    H     H_    0.233826 0.244545 0.912071 0.185679
H9    H     H_    0.639386 0.830440 0.112666 0.206691
H10   H     H_    0.696075 0.888025 0.131069 0.288121
H11   H     H_    0.652953 0.895172 0.064473 0.255208
H12   H     H_    0.753223 0.856779 0.036839 0.234959
H13   H     H_    0.766682 0.425631 0.912240 0.269487
H14   H     H_    0.700989 0.797863 0.027843 0.160971
H15   H     H_    0.270074 0.667819 0.881217 0.260314
H16   H     H_    0.297936 0.744644 0.898568 0.277798
H17   H     H_    0.280890 0.689635 0.955857 0.253796
H18   H     H_    0.199740 0.765369 0.951337 0.213432
H19   H     H_    0.170115 0.692575 0.930145 0.187581
H20   H     H_    0.820565 0.352567 0.132564 0.210983
H21   H     H_    0.886631 0.302482 0.138145 0.293618
H22   H     H_    0.874560 0.348261 0.073205 0.249660
H23   H     H_    0.844657 0.242195 0.051117 0.224404
H24   H     H_    0.685712 0.441966 0.916530 0.249094
H25   H     H_    0.780161 0.288672 0.052206 0.147726
H26   H     H_    0.379616 0.222296 0.397987 0.310543
H27   H     H_    0.340379 0.210173 0.466022 0.249025
H28   H     H_    0.305910 0.183813 0.399316 0.235176
H29   H     H_    0.324681 0.317467 0.441315 0.181725
H30   H     H_    0.255117 0.278456 0.431198 0.179037
H31   H     H_    0.649218 0.752802 0.527210 0.288905
H32   H     H_    0.682972 0.809498 0.575709 0.267202
H33   H     H_    0.705001 0.806206 0.500143 0.233216
H34   H     H_    0.785901 0.758972 0.546120 0.190461
H35   H     H_    0.729978 0.435368 0.981979 0.256188
H36   H     H_    0.742810 0.693302 0.521755 0.214652
H37   H     H_    0.207834 0.669623 0.461256 0.272060
H38   H     H_    0.279199 0.643149 0.493021 0.278037
H39   H     H_    0.232823 0.696943 0.530755 0.227506
H40   H     H_    0.330661 0.740063 0.473603 0.222073
H41   H     H_    0.258462 0.779649 0.469674 0.187941
H42   H     H_    0.698467 0.205070 0.634028 0.262524
H43   H     H_    0.640925 0.246116 0.592535 0.301875
H44   H     H_    0.705556 0.211766 0.556362 0.241103
H45   H     H_    0.715792 0.329281 0.567437 0.211121
H46   H     H_    0.670721 0.336472 0.967987 0.194553
H47   H     H_    0.775972 0.283057 0.597073 0.192352
H48   H     H_    0.809546 0.749653 0.352648 0.266033
H49   H     H_    0.733672 0.777683 0.370798 0.276761
H50   H     H_    0.787505 0.758458 0.427485 0.251493
H51   H     H_    0.710817 0.677357 0.420337 0.186917
H52   H     H_    0.783190 0.647402 0.400525 0.200444
H53   H     H_    0.158716 0.267437 0.594320 0.235201
H54   H     H_    0.186064 0.346432 0.600752 0.291142
H55   H     H_    0.159858 0.317833 0.531510 0.244648
H56   H     H_    0.271683 0.322200 0.532209 0.214115
H57   H     H_    0.752559 0.327909 0.963851 0.202316
H58   H     H_    0.246515 0.244864 0.526836 0.171523
H59   H     H_    0.806006 0.275556 0.413021 0.264507
H60   H     H_    0.757090 0.325248 0.456181 0.295322
H61   H     H_    0.788548 0.255779 0.487473 0.239102
H62   H     H_    0.676175 0.243754 0.459724 0.231350
H63   H     H_    0.728647 0.190009 0.427332 0.185593
H64   H     H_    0.342486 0.852962 0.656826 0.207785
H65   H     H_    0.400067 0.793138 0.661693 0.292214
H66   H     H_    0.403755 0.850326 0.604084 0.250205
H67   H     H_    0.364034 0.755061 0.562268 0.237010
H68   H     H_    0.089647 0.557997 0.224017 0.264619
H69   H     H_    0.306502 0.810153 0.563135 0.154987
H70   H     H_    0.160021 0.078893 0.274440 0.310530
H71   H     H_    0.192194 0.093210 0.345243 0.218408
H72   H     H_    0.113595 0.068142 0.338573 0.243978
H73   H     H_    0.119081 0.177864 0.361640 0.165472
H74   H     H_    0.084550 0.169543 0.293346 0.255755
H75   H     H_    0.993916 0.734591 0.706275 0.232554
H76   H     H_    0.033891 0.805649 0.688966 0.237008
H77   H     H_    0.984794 0.801397 0.751534 0.301652
H78   H     H_    0.949910 0.799245 0.621875 0.167078
H79   H     H_    0.057740 0.627165 0.256476 0.264848
H80   H     H_    0.931572 0.858324 0.669838 0.246151
H81   H     H_    0.091940 0.859104 0.414016 0.275357
H82   H     H_    0.160337 0.882801 0.451894 0.263306
H83   H     H_    0.101011 0.938412 0.437161 0.268674
H84   H     H_    0.187088 0.953659 0.366773 0.198851
H85   H     H_    0.116673 0.930357 0.333826 0.255932
H86   H     H_    0.918260 0.176354 0.691256 0.310178
H87   H     H_    0.907805 0.233273 0.634594 0.221207
H88   H     H_    0.983314 0.218323 0.662361 0.236568
H89   H     H_    0.948808 0.315413 0.704468 0.167596
H90   H     H_    0.026416 0.595756 0.190372 0.249323
H91   H     H_    0.953034 0.260380 0.759783 0.258031
H92   H     H_    0.927047 0.776901 0.290987 0.299998
H93   H     H_    0.928552 0.709894 0.337936 0.217834
H94   H     H_    0.996090 0.731405 0.297060 0.246809
H95   H     H_    0.943032 0.640806 0.253309 0.167124
H96   H     H_    0.948140 0.702692 0.204624 0.262991
H97   H     H_    0.068863 0.150262 0.672788 0.291055
H98   H     H_    0.088807 0.171179 0.599189 0.221254
H99   H     H_    0.046584 0.100716 0.613663 0.253482
H100  H     H_    0.154787 0.081134 0.589798 0.173799
H101  H     H_    0.082314 0.680792 0.159694 0.240041
H102  H     H_    0.137336 0.051499 0.658515 0.240045
H103  H     H_    0.835434 0.062943 0.314883 0.299626
H104  H     H_    0.779699 0.057140 0.372708 0.219297
H105  H     H_    0.799226 0.989479 0.330871 0.247345
H106  H     H_    0.698206 0.030938 0.300478 0.172133
H107  H     H_    0.750060 0.032680 0.243154 0.254782
H108  H     H_    0.253665 0.946642 0.757511 0.303081
H109  H     H_    0.286635 0.949929 0.685698 0.212311
H110  H     H_    0.235526 0.010231 0.709573 0.247547
H111  H     H_    0.188180 0.937316 0.639984 0.158089
H112  H     H_    0.831474 0.575089 0.837485 0.266374
H113  H     H_    0.132597 0.618420 0.141594 0.181447
H114  H     H_    0.145885 0.940670 0.704162 0.264863
H115  H     H_    0.670465 0.538741 0.730830 0.300360
H116  H     H_    0.734056 0.524199 0.778094 0.234456
H117  H     H_    0.658385 0.497381 0.797771 0.231809
H118  H     H_    0.673172 0.586497 0.856543 0.161364
H119  H     H_    0.623529 0.611371 0.802931 0.249081
H120  H     H_    0.481835 0.278553 0.263017 0.312899
H121  H     H_    0.479215 0.203800 0.229198 0.236399
H122  H     H_    0.536832 0.259714 0.208030 0.234287
H123  H     H_    0.462146 0.260831 0.131759 0.173360
H124  H     H_    0.367051 0.103744 0.847177 0.276823
H125  H     H_    0.452729 0.330026 0.168238 0.245426
H126  H     H_    0.546119 0.299163 0.811974 0.298654
H127  H     H_    0.563668 0.274238 0.885014 0.226342
H128  H     H_    0.507550 0.333951 0.873298 0.243138
H129  H     H_    0.602343 0.377784 0.908810 0.173509
H130  H     H_    0.587883 0.408244 0.840024 0.240025
H131  H     H_    0.233466 0.539844 0.323865 0.333840
H132  H     H_    0.153822 0.543158 0.304278 0.223436
H133  H     H_    0.202456 0.482866 0.275590 0.234078
H134  H     H_    0.189622 0.556274 0.198017 0.173555
H135  H     H_    0.423203 0.165121 0.845854 0.237614
H136  H     H_    0.264396 0.564625 0.220827 0.256165
H137  H     H_    0.342875 0.381487 0.808851 0.295214
H138  H     H_    0.339199 0.344067 0.879031 0.215690
H139  H     H_    0.408151 0.384057 0.856609 0.249772
H140  H     H_    0.418563 0.269163 0.850361 0.165929
H141  H     H_    0.431614 0.303700 0.783556 0.264061
H142  H     H_    0.543207 0.741430 0.220972 0.295237
H143  H     H_    0.546614 0.778586 0.150802 0.214393
H144  H     H_    0.483553 0.727708 0.168562 0.251193
H145  H     H_    0.558700 0.680700 0.101392 0.176846
H146  H     H_    0.403711 0.127542 0.913600 0.251861
H147  H     H_    0.550095 0.635363 0.164183 0.250929
H148  H     H_    0.300483 0.554797 0.804535 0.301632
H149  H     H_    0.237890 0.549734 0.855732 0.218654
H150  H     H_    0.256620 0.484046 0.810937 0.245072
H151  H     H_    0.163544 0.538126 0.774911 0.169322
H152  H     H_    0.221138 0.537681 0.722557 0.261555
H153  H     H_    0.728713 0.444935 0.246060 0.301845
H154  H     H_    0.756629 0.442963 0.172393 0.218213
H155  H     H_    0.699361 0.498977 0.193048 0.249491
H156  H     H_    0.657227 0.413060 0.135568 0.169117
H157  H     H_    0.349016 0.228462 0.911651 0.183425
H158  H     H_    0.619947 0.417367 0.202555 0.254952
H159  H     H_    0.297921 0.164234 0.907110 0.227087
H160  H     H_    0.702061 0.593163 0.063848 0.265523
H161  H     H_    0.619614 0.598469 0.069476 0.256919
H162  H     H_    0.656233 0.604921 0.999645 0.248171
H163  H     H_    0.626435 0.711207 0.034468 0.194631
H164  H     H_    0.830619 0.559585 0.914529 0.254002
H165  H     H_    0.707260 0.699356 0.025706 0.195176
H166  H     H_    0.047479 0.666390 0.780533 0.266410
H167  H     H_    0.078005 0.592567 0.758795 0.240923
H168  H     H_    0.028013 0.597333 0.821143 0.260012
H169  H     H_    0.133875 0.588864 0.859137 0.191996
H170  H     H_    0.101541 0.663628 0.871240 0.241689
H171  H     H_    0.587902 0.254069 0.112978 0.267470
H172  H     H_    0.581264 0.337290 0.119378 0.260559
H173  H     H_    0.582901 0.302024 0.048815 0.252806
H174  H     H_    0.686442 0.347094 0.068514 0.192544
H175  H     H_    0.811138 0.662920 0.911903 0.236888
H176  H     H_    0.685746 0.263934 0.063744 0.201614
H177  H     H_    0.121419 0.344111 0.294387 0.262860
H178  H     H_    0.075551 0.280161 0.321704 0.252452
H179  H     H_    0.083254 0.349465 0.363905 0.254607
H180  H     H_    0.150901 0.263894 0.403076 0.181961
H181  H     H_    0.189633 0.333041 0.380217 0.234603
H182  H     H_    0.974625 0.694101 0.616564 0.249850
H183  H     H_    0.921010 0.639028 0.648592 0.262714
H184  H     H_    0.943494 0.633548 0.573334 0.250532
H185  H     H_    0.847730 0.676626 0.566826 0.222014
H186  H     H_    0.734816 0.634739 0.918899 0.176502
H187  H     H_    0.894541 0.744127 0.559733 0.173110
H188  H     H_    0.341247 0.882874 0.320549 0.268877
H189  H     H_    0.285332 0.943673 0.330113 0.253404
H190  H     H_    0.351459 0.940226 0.376510 0.250697
H191  H     H_    0.260645 0.899214 0.430385 0.196386
H192  H     H_    0.318957 0.843002 0.418559 0.226031
H193  H     H_    0.833512 0.447001 0.698136 0.271384
H194  H     H_    0.906915 0.412139 0.713294 0.231863
H195  H     H_    0.894779 0.452360 0.645401 0.257479
H196  H     H_    0.888581 0.339720 0.625855 0.192662
H197  H     H_    0.461763 0.155001 0.141710 0.243597
H198  H     H_    0.816772 0.376793 0.616878 0.239431
H199  H     H_    0.815052 0.526232 0.247998 0.265382
H200  H     H_    0.891036 0.555045 0.233646 0.240875
H201  H     H_    0.878025 0.502163 0.293315 0.263827
H202  H     H_    0.886894 0.608147 0.334720 0.192398
H203  H     H_    0.811623 0.576429 0.341785 0.253217
H204  H     H_    0.323229 0.071691 0.610671 0.274166
H205  H     H_    0.249736 0.037060 0.595295 0.243729
H206  H     H_    0.303240 0.051299 0.537197 0.257158
H207  H     H_    0.221610 0.133876 0.536096 0.185371
H208  H     H_    0.394006 0.113266 0.165900 0.265980
H209  H     H_    0.297605 0.161730 0.549471 0.211671
H210  H     H_    0.569962 0.147808 0.314119 0.269885
H211  H     H_    0.604460 0.075786 0.291929 0.237408
H212  H     H_    0.562588 0.079680 0.359514 0.258060
H213  H     H_    0.673328 0.082632 0.383472 0.194856
H214  H     H_    0.636297 0.153853 0.398605 0.230568
H215  H     H_    0.103876 0.790295 0.600347 0.263448
H216  H     H_    0.105360 0.873554 0.609123 0.256866
H217  H     H_    0.109257 0.840407 0.537749 0.261615
H218  H     H_    0.214846 0.875179 0.569474 0.185128
H219  H     H_    0.426948 0.099440 0.095191 0.254182
H220  H     H_    0.207358 0.794203 0.556641 0.202958
H221  H     H_    0.866416 0.741386 0.948680 0.310184
H222  H     H_    0.841476 0.810796 0.984261 0.225787
H223  H     H_    0.805211 0.737812 0.000605 0.238128
H224  H     H_    0.758319 0.826310 0.924476 0.231175
H225  H     H_    0.738628 0.747699 0.923052 0.180521
H226  H     H_    0.156665 0.263986 0.031073 0.301023
H227  H     H_    0.203819 0.316030 0.073417 0.265176
H228  H     H_    0.218778 0.305922 0.997258 0.235492
H229  H     H_    0.294516 0.247687 0.044180 0.187233
H230  H     H_    0.341723 0.159093 0.075787 0.230957
H231  H     H_    0.241454 0.190049 0.019803 0.209741
H232  H     H_    0.692704 0.129324 0.891590 0.297137
H233  H     H_    0.657155 0.143281 0.961343 0.248491
H234  H     H_    0.648879 0.199191 0.903379 0.212721
H235  H     H_    0.766413 0.165320 0.970267 0.221698
H236  H     H_    0.725010 0.233700 0.976551 0.148325
H237  H     H_    0.091374 0.729595 0.078584 0.304154
H238  H     H_    0.130881 0.786605 0.034898 0.237694
H239  H     H_    0.154865 0.707240 0.034559 0.221811
H240  H     H_    0.215661 0.793497 0.095583 0.210400
N1    N     N_R   0.940200 0.105310 0.059970 -0.172806
N2    N     N_R   0.059800 0.105310 0.059970 -0.168559
N3    N     N_R   0.105310 0.940200 0.940030 -0.180530
N4    N     N_R   0.894690 0.059800 0.059970 -0.174447
N5    N     N_R   0.059800 0.105310 0.940030 -0.180442
N6    N     N_R   0.940200 0.894690 0.059970 -0.173946
N7    N     N_R   0.894690 0.059800 0.940030 -0.175180
N8    N     N_R   0.105310 0.940200 0.059970 -0.182327
N9    N     N_R   0.440200 0.605310 0.559970 -0.168956
N10   N     N_R   0.559800 0.394690 0.440030 -0.169196
N11   N     N_R   0.605310 0.559800 0.559970 -0.164291
N12   N     N_R   0.059800 0.894690 0.940030 -0.164956
N13   N     N_R   0.394690 0.440200 0.440030 -0.174484
N14   N     N_R   0.559800 0.394690 0.559970 -0.176602
N15   N     N_R   0.440200 0.605310 0.440030 -0.180008
N16   N     N_R   0.394690 0.440200 0.559970 -0.169917
N17   N     N_R   0.605310 0.559800 0.440030 -0.170476
N18   N     N_R   0.440200 0.394690 0.440030 -0.172240
N19   N     N_R   0.559800 0.605310 0.559970 -0.170109
N20   N     N_R   0.605310 0.440200 0.440030 -0.171517
N21   N     N_R   0.394690 0.559800 0.559970 -0.173495
N22   N     N_R   0.559800 0.605310 0.440030 -0.185785
N23   N     N_R   0.105310 0.059800 0.059970 -0.169025
N24   N     N_R   0.440200 0.394690 0.559970 -0.172330
N25   N     N_R   0.394690 0.559800 0.440030 -0.181492
N26   N     N_R   0.605310 0.440200 0.559970 -0.166352
N27   N     N_R   0.894690 0.940200 0.940030 -0.175659
N28   N     N_R   0.059800 0.894690 0.059970 -0.176582
N29   N     N_R   0.940200 0.105310 0.940030 -0.180091
N30   N     N_R   0.894690 0.940200 0.059970 -0.169311
N31   N     N_R   0.105310 0.059800 0.940030 -0.180891
N32   N     N_R   0.940200 0.894690 0.940030 -0.173152
Ni1   Ni    Ni4+2 1.000000 0.104370 0.000000 0.294311
Ni2   Ni    Ni4+2 0.000000 0.895630 0.000000 0.285684
Ni3   Ni    Ni4+2 0.104370 0.000000 0.000000 0.298043
Ni4   Ni    Ni4+2 0.895630 0.000000 0.000000 0.289955
Ni5   Ni    Ni4+2 0.500000 0.604370 0.500000 0.283957
Ni6   Ni    Ni4+2 0.500000 0.395630 0.500000 0.299674
Ni7   Ni    Ni4+2 0.604370 0.500000 0.500000 0.297737
Ni8   Ni    Ni4+2 0.395630 0.500000 0.500000 0.294438

loop_
_geom_bond_atom_site_label_1
_geom_bond_atom_site_label_2
_ccdc_geom_bond_type
C23   C58   S    
C111  H198  S    
C168  F18   S    
C126  C127  S    
C208  C260  A    
C90   F10   S    
C258  C266  A    
C140  H22   S    
C141  H30   S    
C87   C88   S    
C96   H159  S    
C234  C250  A    
C47   C247  A    
C165  C221  S    
C228  C247  A    
C200  C270  A    
C114  H194  S    
C105  H181  S    
C214  C267  A    
N8    Ni3   S    
C118  H204  S    
C166  H88   S    
C130  H3    S    
C85   C215  A    
C102  H167  S    
C109  H191  S    
C121  H218  S    
C143  C144  S    
C245  C263  A    
C171  H97   S    
C27   C90   A    
C98   H163  S    
C129  H233  S    
C193  H155  S    
C86   C156  S    
C125  H222  S    
C188  H144  S    
C36   C53   A    
C2    N2    A    
C20   C262  A    
C160  H72   S    
C4    C96   S    
C132  H7    S    
C38   C55   A    
C254  C261  A    
C119  H213  S    
C48   C65   A    
C163  H85   S    
C164  H83   S    
C230  C246  A    
C95   H90   S    
C240  N30   A    
C23   C46   A    
N15   Ni5   S    
C151  H48   S    
C135  N15   A    
C88   H164  S    
C177  H117  S    
C3    C230  A    
C76   C206  A    
C186  H139  S    
N17   Ni7   S    
C218  N28   A    
C60   C77   A    
C38   F30   S    
C40   C58   A    
C99   H162  S    
C104  H172  S    
C15   C215  A    
C154  H62   S    
C78   C141  S    
C47   C64   A    
C21   C55   S    
C142  H26   S    
C225  C242  A    
C139  H23   S    
N2    N23   A    
C161  H78   S    
C32   C197  A    
C31   C63   S    
C2    F2    S    
C113  N13   A    
C204  C257  A    
C97   H135  S    
C178  C180  S    
C39   C56   A    
N29   Ni1   S    
C199  F26   S    
C160  H70   S    
C183  C230  S    
C41   C59   A    
C154  C155  S    
N21   Ni8   S    
N15   N25   A    
C44   C245  A    
C13   C18   A    
C195  F22   S    
C81   C211  A    
C137  H18   S    
C161  C219  S    
C152  H56   S    
C151  H49   S    
C110  H189  S    
C53   C71   A    
N3    Ni3   S    
C43   C61   A    
C226  C245  A    
C80   C210  A    
C29   C113  A    
C73   C130  S    
C70   C200  A    
C90   N10   A    
C2    C19   A    
C239  C257  A    
C170  H102  S    
C171  H99   S    
C45   C246  A    
C139  C140  S    
C68   F8    S    
C121  H220  S    
C43   C244  A    
C79   F9    S    
C176  C226  S    
C191  H148  S    
C42   F35   S    
C156  C158  S    
C130  C131  S    
C48   C248  A    
C223  C239  A    
C226  C270  A    
C23   C240  A    
C75   C205  A    
C137  H19   S    
C136  H10   S    
C117  H207  S    
C115  H203  S    
C243  C260  A    
C104  H173  S    
C86   C216  A    
C123  C125  S    
C13   F3    S    
C196  F23   S    
C162  H75   S    
C98   C99   S    
C182  H127  S    
C26   C69   S    
N14   N26   A    
C127  H227  S    
C51   C69   A    
N7    Ni4   S    
C184  H132  S    
C1    N1    A    
C88   H1    S    
N16   Ni8   S    
C31   C198  A    
C233  C252  A    
C155  H60   S    
C116  H200  S    
C35   N5    A    
C25   C251  A    
C42   C243  A    
C257  C267  A    
C215  C268  A    
C128  C129  S    
C11   C221  A    
C39   C239  A    
C75   C134  S    
C22   C54   S    
C76   C137  S    
C73   C203  A    
C211  C264  A    
C99   H161  S    
C229  N29   A    
C178  H123  S    
C29   C168  A    
C62   C80   A    
C174  C225  S    
C106  H178  S    
C45   F38   S    
C188  H142  S    
C229  F45   S    
N7    N29   A    
C252  C269  A    
C149  H44   S    
C51   F43   S    
C170  C171  S    
C201  C254  A    
C10   C109  S    
C48   F40   S    
C112  F12   S    
C15   C224  A    
C189  C191  S    
C174  C175  S    
C8    C217  A    
C194  F21   S    
C130  H240  S    
C13   N3    A    
N13   N18   A    
C107  C108  S    
C71   C126  S    
N26   Ni7   S    
C260  C268  A    
C189  C233  S    
C50   C67   A    
C50   C250  A    
C107  H187  S    
C83   C150  S    
C93   H13   S    
C253  C263  A    
C198  N25   A    
C7    C234  A    
C19   C196  A    
C7    C103  S    
C92   H57   S    
C159  H74   S    
C173  H103  S    
C175  H109  S    
C169  H93   S    
C34   C235  A    
N10   Ni6   S    
C164  H82   S    
C82   C212  A    
C205  C258  A    
C147  H38   S    
C29   C61   S    
C134  H14   S    
C241  C258  A    
C219  C235  A    
C14   C223  A    
C184  H133  S    
C228  C272  A    
N28   Ni2   S    
C227  C244  A    
C133  H5    S    
C79   N9    A    
C167  H95   S    
C49   C66   A    
C232  C248  A    
C6    C100  S    
C97   H124  S    
C167  C222  S    
N13   Ni8   S    
C11   C212  A    
C38   C238  A    
C158  H65   S    
C131  H238  S    
C100  H170  S    
C190  N20   A    
C9    C210  A    
C156  H67   S    
C64   C82   A    
C122  H215  S    
C46   N6    A    
C150  H52   S    
C251  N31   A    
C51   C252  A    
C108  H183  S    
C12   C222  A    
C178  C227  S    
C196  N23   A    
C133  H4    S    
C21   C68   A    
C158  H64   S    
C89   H230  S    
C144  H32   S    
C231  C249  A    
C84   C152  S    
C216  C269  A    
C246  C264  A    
C72   C202  A    
C24   F4    S    
C210  C263  A    
C44   F37   S    
C198  F25   S    
C141  H29   S    
C88   H112  S    
C82   C148  S    
C224  C243  A    
C192  C234  S    
C36   C236  A    
C114  H195  S    
C105  H180  S    
C1    C17   A    
C91   H197  S    
C21   C218  A    
C118  H205  S    
C12   C115  S    
C175  H108  S    
C250  C268  A    
C117  C118  S    
C102  H168  S    
C182  H128  S    
C94   H101  S    
C15   C119  S    
C174  H114  S    
C172  H106  S    
C85   C154  S    
N16   N24   A    
C193  H154  S    
C125  H221  S    
C6    C206  A    
C194  N21   A    
C27   C67   S    
C97   H146  S    
C107  H185  S    
C17   C60   S    
C192  H158  S    
C247  C265  A    
C185  H141  S    
C18   C59   S    
C57   N7    A    
C152  C153  S    
C186  H137  S    
C91   H208  S    
C150  C151  S    
N3    N12   A    
C20   C207  A    
C236  C254  A    
C59   C76   A    
C191  H149  S    
C169  H94   S    
C28   C62   S    
C138  H15   S    
C134  H12   S    
C189  H152  S    
C30   C64   S    
C98   H165  S    
C3    C203  A    
C242  C259  A    
C129  H234  S    
C138  H17   S    
C177  H116  S    
C220  C238  A    
C161  C162  S    
C202  C255  A    
C181  C182  S    
C181  H130  S    
C155  H61   S    
C89   H2    S    
C12   C213  A    
C18   C112  A    
C154  H63   S    
C161  H80   S    
C166  H86   S    
C95   H68   S    
C92   C272  S    
C157  N17   A    
C142  H27   S    
C36   F28   S    
C32   C146  A    
C192  H156  S    
C251  F47   S    
C156  H69   S    
C111  H196  S    
C14   C214  A    
C128  H235  S    
N5    Ni1   S    
C126  H231  S    
C201  C271  A    
N1    Ni1   S    
C16   C216  A    
C202  C272  A    
C99   H160  S    
C28   C101  A    
C145  H40   S    
C190  F20   S    
C170  H100  S    
C197  N24   A    
C120  H210  S    
C27   C190  A    
C113  F13   S    
C35   F5    S    
C33   C65   S    
C40   C241  A    
C259  C269  A    
C143  H36   S    
C49   C249  A    
C153  H54   S    
C9    C219  A    
C124  N14   A    
C179  N19   A    
C8    C105  S    
N17   N22   A    
C140  H21   S    
C110  H190  S    
C145  C147  S    
C222  C241  A    
C33   C157  A    
C114  H193  S    
C16   C225  A    
C67   C85   A    
C101  F11   S    
C11   C111  S    
C4    C231  A    
C166  H87   S    
C56   C74   A    
C235  C253  A    
C31   C135  A    
C102  H166  S    
C255  C265  A    
C147  H39   S    
C180  H120  S    
N4    Ni4   S    
C66   C84   A    
C87   H186  S    
C16   C121  S    
C125  H223  S    
N25   Ni8   S    
C172  C224  S    
C147  H37   S    
C159  C160  S    
C106  H179  S    
C55   C73   A    
C119  H214  S    
C5    C232  A    
C176  H118  S    
C121  C122  S    
C180  H122  S    
C25   C35   A    
C187  C232  S    
C131  H239  S    
C180  H121  S    
C72   C128  S    
C212  C265  A    
C191  H150  S    
C43   F36   S    
C9    C107  S    
C108  H182  S    
N6    Ni2   S    
C186  H138  S    
C32   C66   S    
C203  C256  A    
C155  H59   S    
C174  H111  S    
C237  C255  A    
C104  H171  S    
C68   N8    A    
C77   C139  S    
C103  H176  S    
N24   Ni6   S    
C119  C120  S    
C162  H77   S    
C182  H126  S    
C105  C106  S    
C34   C52   A    
C26   C79   A    
C126  H229  S    
C152  H58   S    
C187  C188  S    
C109  C110  S    
C192  C193  S    
N31   Ni3   S    
C249  C267  A    
C185  C186  S    
C149  H43   S    
C22   C229  A    
C41   F33   S    
C92   C93   S    
C46   F6    S    
N9    Ni5   S    
C120  H212  S    
C111  C114  S    
C94   C95   S    
C28   C179  A    
N11   Ni7   S    
C146  F16   S    
C143  H34   S    
C170  C223  S    
C10   C211  A    
C33   C195  A    
C221  C237  A    
C103  C104  S    
C178  H125  S    
C14   C117  S    
C110  H188  S    
C115  C116  S    
N2    Ni1   S    
C123  H224  S    
N6    N30   A    
C24   N4    A    
C165  C166  S    
N8    N28   A    
C74   C132  S    
C159  H73   S    
C262  N32   A    
C163  C164  S    
C25   C56   S    
C183  C184  S    
C169  H92   S    
C142  H28   S    
C87   C270  S    
C22   C57   A    
C10   C220  A    
C188  H143  S    
C168  N18   A    
C151  H50   S    
N14   Ni6   S    
C74   C204  A    
C63   C81   A    
C136  H9    S    
N5    N31   A    
C187  H147  S    
C207  N27   A    
N27   Ni4   S    
C65   C83   A    
C248  C266  A    
C106  H177  S    
C37   F29   S    
C148  H45   S    
C165  H89   S    
C176  H119  S    
C39   F31   S    
C262  F48   S    
C40   F32   S    
N11   N19   A    
C158  H66   S    
N12   Ni2   S    
C209  C261  A    
C131  H237  S    
C34   F27   S    
C149  H42   S    
C132  C133  S    
C159  C217  S    
C122  H216  S    
C179  F19   S    
C127  H228  S    
C185  C231  S    
C3    C94   S    
C184  H131  S    
C108  H184  S    
C109  H192  S    
C1    F1    S    
C183  H136  S    
C200  C253  A    
C163  C220  S    
N1    N4    A    
C30   C199  A    
C197  F24   S    
C116  H199  S    
C167  C169  S    
C92   H46   S    
C218  F44   S    
C103  H174  S    
C70   C123  S    
C217  C236  A    
C83   C213  A    
C84   C214  A    
C58   C75   A    
N23   Ni3   S    
C181  C228  S    
C123  H225  S    
C122  H217  S    
C144  H33   S    
C172  H107  S    
C17   C24   A    
N19   Ni5   S    
C157  F17   S    
C52   C70   A    
C148  C149  S    
C140  H20   S    
N32   Ni2   S    
C96   H157  S    
C77   C208  A    
C42   C60   A    
C134  C136  S    
C44   C62   A    
C240  F46   S    
C213  C266  A    
C45   C63   A    
C160  H71   S    
C238  C256  A    
C118  H206  S    
C173  H105  S    
C112  N12   A    
C199  N26   A    
C95   H79   S    
C37   C237  A    
C132  H8    S    
C61   C78   A    
C80   C143  S    
C96   C97   S    
C100  C102  S    
C207  F34   S    
C93   H24   S    
C193  H153  S    
C78   C209  A    
C146  N16   A    
C37   C54   A    
C57   F7    S    
C185  H140  S    
C227  C271  A    
C176  C177  S    
C6    C233  A    
C30   C124  A    
C93   H35   S    
C116  H201  S    
C81   C145  S    
C163  H84   S    
C139  H25   S    
C173  H104  S    
C175  H110  S    
C135  F15   S    
C8    C209  A    
C171  H98   S    
C153  H55   S    
C164  H81   S    
C49   F41   S    
C172  C173  S    
C206  C259  A    
N27   N32   A    
C162  H76   S    
C71   C201  A    
C138  H16   S    
C189  H151  S    
C89   C271  S    
C136  H11   S    
C187  H145  S    
C195  N22   A    
C7    C208  A    
C177  H115  S    
N18   Ni6   S    
C133  H6    S    
C47   F39   S    
C145  H41   S    
C167  H96   S    
C148  H47   S    
C181  H129  S    
C137  C138  S    
C165  H91   S    
C115  H202  S    
C41   C242  A    
N9    N21   A    
C120  H211  S    
C256  C264  A    
C20   C52   S    
C153  H53   S    
C141  C142  S    
C91   H219  S    
C19   C53   S    
C100  H169  S    
C4    C204  A    
C150  H51   S    
C101  N11   A    
C128  H236  S    
C127  H226  S    
C183  H134  S    
C87   H175  S    
C5    C205  A    
C50   F42   S    
N30   Ni4   S    
N10   N20   A    
C54   C72   A    
C5    C98   S    
C117  H209  S    
C89   C91   S    
N20   Ni7   S    
C144  H31   S    
C244  C261  A    
C129  H232  S    
N22   Ni5   S    
C69   C86   A    
C124  F14   S    
C94   H113  S    
C26   C194  A    
