data_mof_unit_1218.cif
_audit_creation_date              2012-12-10T18:13:26-0500
_audit_creation_method            fapswitch 2.2
_symmetry_space_group_name_H-M    P1
_symmetry_Int_Tables_number       1
_space_group_crystal_system       triclinic
_cell_length_a                    18.287627
_cell_length_b                    18.308724
_cell_length_c                    25.992744
_cell_angle_alpha                 90.141066
_cell_angle_beta                  89.895806
_cell_angle_gamma                 89.952765
_cell_volume                      8702.92776488

loop_
_atom_site_label
_atom_site_type_symbol
_atom_type_description
_atom_site_fract_x
_atom_site_fract_y
_atom_site_fract_z
_atom_type_partial_charge
C1    C     C_R   0.860721 0.140920 0.248903 0.496717
C2    C     C_R   0.790670 0.235133 0.293468 -0.128484
C3    C     C_R   0.228930 0.323041 0.253925 0.122863
C4    C     C_3   0.154542 0.909906 0.431132 -0.290874
C5    C     C_3   0.021963 0.815935 0.557949 -0.288603
C6    C     C_3   0.525161 0.318416 0.932664 -0.258640
C7    C     C_3   0.537447 0.315632 0.062010 -0.272774
C8    C     C_3   0.856821 0.124989 0.548795 -0.242096
C9    C     C_3   0.834896 0.051864 0.573608 -0.294911
C10   C     C_3   0.752809 0.048569 0.584111 -0.470679
C11   C     C_3   0.886709 0.144843 0.433858 -0.224564
C12   C     C_3   0.840113 0.074871 0.427327 -0.290504
C13   C     C_R   0.176646 0.267224 0.743919 -0.109929
C14   C     C_3   0.761577 0.092730 0.412049 -0.467217
C15   C     C_3   0.979460 0.188354 0.567275 -0.226712
C16   C     C_3   0.952704 0.268089 0.561813 -0.318493
C17   C     C_3   0.015584 0.322733 0.565029 -0.453804
C18   C     C_3   0.013717 0.199200 0.456449 -0.262264
C19   C     C_3   0.054290 0.192805 0.404886 -0.276107
C20   C     C_3   0.107153 0.256561 0.397537 -0.472004
C21   C     C_3   0.373152 0.625658 0.061341 -0.227558
C22   C     C_3   0.337153 0.549099 0.063347 -0.292643
C23   C     C_3   0.256856 0.554024 0.079092 -0.473788
C24   C     C_R   0.177101 0.267440 0.255212 -0.152347
C25   C     C_3   0.373051 0.633156 0.944540 -0.245586
C26   C     C_3   0.335468 0.708552 0.945122 -0.310022
C27   C     C_3   0.252442 0.701565 0.945189 -0.447264
C28   C     C_3   0.498217 0.692504 0.059330 -0.242788
C29   C     C_3   0.461551 0.767757 0.066060 -0.313843
C30   C     C_3   0.515111 0.823342 0.088357 -0.455839
C31   C     C_3   0.502006 0.689746 0.943223 -0.215223
C32   C     C_3   0.584769 0.671003 0.942295 -0.287042
C33   C     C_3   0.631256 0.739915 0.938066 -0.473857
C34   C     C_3   0.224727 0.774727 0.105343 -0.322316
C35   C     C_R   0.279270 0.723021 0.203960 -0.119115
C36   C     C_3   0.126279 0.769719 0.859074 -0.302116
C37   C     C_3   0.677703 0.921836 0.194056 -0.292181
C38   C     C_3   0.715586 0.895080 0.845347 -0.280717
C39   C     C_3   0.730406 0.283303 0.605715 -0.324608
C40   C     C_3   0.764584 0.317645 0.387857 -0.328836
C41   C     C_3   0.177228 0.421981 0.694764 -0.289000
C42   C     C_3   0.204792 0.434352 0.207185 -0.293222
C43   C     C_3   0.801742 0.200761 0.850640 -0.232830
C44   C     C_3   0.751584 0.143420 0.875140 -0.280843
C45   C     C_3   0.779206 0.121503 0.928265 -0.457508
C46   C     C_R   0.279498 0.724278 0.794874 -0.118152
C47   C     C_3   0.783017 0.182561 0.149272 -0.235746
C48   C     C_3   0.857907 0.206802 0.128689 -0.281931
C49   C     C_3   0.871672 0.176385 0.074814 -0.449285
C50   C     C_3   0.300797 0.097703 0.753086 -0.234726
C51   C     C_3   0.317189 0.071487 0.807870 -0.278851
C52   C     C_3   0.339939 0.991241 0.808163 -0.450702
C53   C     C_3   0.300803 0.096603 0.247593 -0.236532
C54   C     C_3   0.287115 0.058301 0.299270 -0.289960
C55   C     C_3   0.313851 0.979297 0.297890 -0.450478
C56   C     C_3   0.308991 0.708104 0.350170 -0.237895
C57   C     C_R   0.676697 0.767182 0.243522 -0.110979
C58   C     C_3   0.260037 0.654689 0.379681 -0.279660
C59   C     C_3   0.290835 0.639457 0.433128 -0.456847
C60   C     C_3   0.301317 0.698309 0.648137 -0.240106
C61   C     C_3   0.379310 0.724273 0.636206 -0.287299
C62   C     C_3   0.403702 0.698934 0.582866 -0.452751
C63   C     C_3   0.800848 0.597771 0.254193 -0.236230
C64   C     C_3   0.816477 0.572240 0.309259 -0.279672
C65   C     C_3   0.839370 0.492051 0.310231 -0.441319
C66   C     C_3   0.730207 0.670510 0.652070 -0.231319
C67   C     C_3   0.782612 0.605022 0.649382 -0.269378
C68   C     C_R   0.704458 0.739852 0.791464 -0.144400
C69   C     C_3   0.766477 0.556717 0.602928 -0.445567
C70   C     C_R   0.804720 0.197386 0.751425 0.019337
C71   C     C_R   0.805601 0.198242 0.247354 0.019102
C72   C     C_R   0.198182 0.194170 0.748395 0.014007
C73   C     C_R   0.860410 0.140607 0.750700 0.493613
C74   C     C_R   0.198391 0.194122 0.251537 0.024601
C75   C     C_R   0.305099 0.697595 0.251374 0.019832
C76   C     C_R   0.305044 0.697559 0.747703 0.020816
C77   C     C_R   0.698203 0.694161 0.248400 0.014131
C78   C     C_R   0.694690 0.697881 0.746982 0.018797
C79   C     C_R   0.774029 0.223070 0.798035 -0.023682
C80   C     C_R   0.766712 0.215704 0.201801 -0.021467
C81   C     C_R   0.273011 0.175767 0.753229 -0.024311
C82   C     C_R   0.273428 0.175082 0.248100 -0.021570
C83   C     C_R   0.277099 0.726076 0.297932 -0.021961
C84   C     C_R   0.140847 0.139368 0.250504 0.499213
C85   C     C_R   0.275578 0.723914 0.700821 -0.020960
C86   C     C_R   0.772996 0.675817 0.253682 -0.024214
C87   C     C_R   0.738726 0.710616 0.702829 -0.025334
C88   C     C_R   0.221074 0.777449 0.295673 -0.156317
C89   C     C_R   0.220724 0.776909 0.703097 -0.156318
C90   C     C_R   0.824213 0.732098 0.255641 -0.150695
C91   C     C_R   0.793024 0.763578 0.705619 -0.162603
C92   C     C_R   0.718484 0.274934 0.795805 -0.155449
C93   C     C_R   0.711535 0.267916 0.204814 -0.159340
C94   C     C_R   0.324265 0.232022 0.755249 -0.152379
C95   C     C_R   0.140983 0.139088 0.749257 0.495976
C96   C     C_R   0.324963 0.231234 0.246416 -0.160011
C97   C     C_R   0.195037 0.802674 0.248454 0.030737
C98   C     C_R   0.195867 0.803768 0.750372 0.038408
C99   C     C_R   0.802550 0.805104 0.250989 0.033146
C100  C     C_R   0.802705 0.805080 0.750221 0.048997
C101  C     C_R   0.694861 0.302643 0.748644 0.035806
C102  C     C_R   0.695749 0.303452 0.251116 0.031165
C103  C     C_R   0.302575 0.305072 0.750977 0.032953
C104  C     C_R   0.303346 0.304383 0.249592 0.055787
C105  C     C_R   0.065705 0.008966 0.026611 -0.140734
C106  C     C_R   0.360528 0.640693 0.749109 0.492768
C107  C     C_R   0.065658 0.008948 0.973218 -0.142332
C108  C     C_R   0.934559 0.988543 0.026760 -0.150058
C109  C     C_R   0.934528 0.988427 0.973370 -0.147890
C110  C     C_R   0.566187 0.503415 0.526548 -0.142803
C111  C     C_R   0.566164 0.503453 0.473187 -0.141175
C112  C     C_R   0.433735 0.495246 0.526777 -0.149130
C113  C     C_R   0.433717 0.494868 0.473394 -0.148278
C114  C     C_R   0.000003 0.999092 0.946306 0.037577
C115  C     C_R   0.000095 0.999167 0.053680 0.037344
C116  C     C_R   0.499905 0.499420 0.446300 0.038196
C117  C     C_R   0.360515 0.640647 0.250719 0.492077
C118  C     C_R   0.500000 0.499605 0.553670 0.036869
C119  C     C_R   0.139514 0.859440 0.249307 0.491179
C120  C     C_R   0.139942 0.859918 0.750152 0.500563
C121  C     C_R   0.859213 0.860712 0.250604 0.495125
C122  C     C_R   0.859997 0.859867 0.750425 0.521410
C123  C     C_R   0.639555 0.359528 0.749431 0.502123
C124  C     C_R   0.639557 0.359488 0.250648 0.497198
C125  C     C_R   0.359230 0.360692 0.750591 0.496059
C126  C     C_R   0.359682 0.360198 0.249831 0.517491
C127  C     C_R   0.000041 0.999821 0.109785 0.502344
C128  C     C_R   0.639310 0.640917 0.748747 0.498829
C129  C     C_R   0.999961 0.999736 0.890210 0.502714
C130  C     C_R   0.500035 0.499940 0.609782 0.499156
C131  C     C_R   0.499945 0.499828 0.390208 0.499746
C132  C     C_R   0.003021 0.000730 0.389822 0.509043
C133  C     C_R   0.000840 0.999923 0.610033 0.495516
C134  C     C_R   0.500784 0.499977 0.889993 0.519180
C135  C     C_R   0.503879 0.500083 0.110304 0.498900
C136  C     C_R   0.988467 0.063854 0.474256 -0.024106
C137  C     C_R   0.980384 0.060308 0.526131 -0.034026
C138  C     C_R   0.482556 0.559059 0.974771 -0.045934
C139  C     C_R   0.640996 0.639079 0.249251 0.494143
C140  C     C_R   0.486740 0.560495 0.026743 -0.032878
C141  C     C_R   0.010855 0.003090 0.445375 0.000737
C142  C     C_R   0.004706 0.999713 0.554239 -0.012252
C143  C     C_R   0.505596 0.499149 0.945785 -0.002572
C144  C     C_R   0.510703 0.500450 0.054832 -0.010545
C145  C     C_R   0.040746 0.942835 0.472029 0.139832
C146  C     C_R   0.036447 0.940015 0.526423 0.111727
C147  C     C_R   0.536801 0.438882 0.972676 0.135299
C148  C     C_R   0.539976 0.439923 0.027247 0.116907
C149  C     C_3   0.939396 0.132696 0.530967 0.040636
C150  C     C_R   0.780899 0.225102 0.704054 -0.120032
C151  C     C_3   0.954902 0.139210 0.470084 0.049217
C152  C     C_3   0.448872 0.633524 0.032543 0.052172
C153  C     C_3   0.449288 0.634284 0.970962 0.048504
C154  C     C_R   0.223675 0.775695 0.201634 0.133043
C155  C     C_R   0.224588 0.776609 0.796796 0.118197
C156  C     C_R   0.728015 0.823157 0.244833 0.124002
C157  C     C_R   0.757260 0.794134 0.793374 0.116686
C158  C     C_R   0.725140 0.277615 0.701874 0.133385
C159  C     C_R   0.735322 0.287591 0.296287 0.123593
C160  C     C_R   0.227995 0.323174 0.745170 0.123581
H1    H     H_    0.804819 0.203562 0.669063 0.115296
H2    H     H_    0.197941 0.798595 0.667784 0.115613
H3    H     H_    0.284165 0.786562 0.103514 0.143240
H4    H     H_    0.202983 0.853705 0.853473 0.274383
H5    H     H_    0.112684 0.784844 0.899352 0.132277
H6    H     H_    0.126484 0.709191 0.855877 0.145454
H7    H     H_    0.083236 0.792366 0.833636 0.153138
H8    H     H_    0.734661 0.934395 0.263047 0.263877
H9    H     H_    0.656613 0.978524 0.197592 0.133913
H10   H     H_    0.632684 0.886580 0.179741 0.136739
H11   H     H_    0.723451 0.921328 0.165866 0.163557
H12   H     H_    0.767896 0.802627 0.872006 0.234607
H13   H     H_    0.881768 0.718706 0.259259 0.127945
H14   H     H_    0.729643 0.926980 0.880347 0.133027
H15   H     H_    0.658794 0.874295 0.849266 0.111967
H16   H     H_    0.718565 0.932117 0.811614 0.172898
H17   H     H_    0.640553 0.308551 0.652347 0.252567
H18   H     H_    0.704685 0.314361 0.573867 0.139578
H19   H     H_    0.722186 0.224167 0.598370 0.126247
H20   H     H_    0.789388 0.297017 0.606171 0.142468
H21   H     H_    0.661452 0.321273 0.352985 0.258174
H22   H     H_    0.746422 0.357025 0.417821 0.140005
H23   H     H_    0.821491 0.331860 0.376712 0.144725
H24   H     H_    0.827399 0.773215 0.672266 0.127505
H25   H     H_    0.762310 0.261900 0.404349 0.125924
H26   H     H_    0.234879 0.434362 0.763476 0.263361
H27   H     H_    0.222732 0.421597 0.666378 0.164424
H28   H     H_    0.156114 0.478636 0.698478 0.137172
H29   H     H_    0.132112 0.386721 0.680586 0.137227
H30   H     H_    0.157847 0.405105 0.276608 0.237915
H31   H     H_    0.189791 0.492572 0.213054 0.138897
H32   H     H_    0.163872 0.408631 0.181296 0.123919
H33   H     H_    0.259489 0.432474 0.188604 0.151882
H34   H     H_    0.835968 0.100316 0.925551 0.169916
H35   H     H_    0.695037 0.295745 0.831319 0.126225
H36   H     H_    0.778173 0.169273 0.954678 0.142157
H37   H     H_    0.743611 0.078081 0.944389 0.128780
H38   H     H_    0.695283 0.165757 0.879047 0.148487
H39   H     H_    0.749143 0.093994 0.850305 0.187622
H40   H     H_    0.858714 0.179981 0.848634 0.159664
H41   H     H_    0.804046 0.249814 0.875943 0.125203
H42   H     H_    0.868352 0.115886 0.075175 0.169387
H43   H     H_    0.830625 0.198199 0.047402 0.139259
H44   H     H_    0.927057 0.192566 0.061512 0.143566
H45   H     H_    0.860043 0.267449 0.127148 0.152629
H46   H     H_    0.681565 0.282588 0.170374 0.123278
H47   H     H_    0.902387 0.187704 0.154340 0.172758
H48   H     H_    0.778681 0.122201 0.150474 0.174824
H49   H     H_    0.740943 0.199927 0.120939 0.118743
H50   H     H_    0.295303 0.956489 0.792673 0.176935
H51   H     H_    0.389971 0.983183 0.784520 0.144426
H52   H     H_    0.351675 0.973876 0.848208 0.134448
H53   H     H_    0.362078 0.104844 0.824570 0.148211
H54   H     H_    0.268046 0.078210 0.832633 0.193180
H55   H     H_    0.261346 0.060413 0.734032 0.158257
H56   H     H_    0.351601 0.094389 0.729579 0.121650
H57   H     H_    0.381850 0.218594 0.758561 0.125219
H58   H     H_    0.285274 0.948339 0.267133 0.176991
H59   H     H_    0.373719 0.977410 0.290729 0.150342
H60   H     H_    0.302231 0.952704 0.335381 0.128643
H61   H     H_    0.316430 0.088077 0.330326 0.154518
H62   H     H_    0.227989 0.058093 0.308896 0.162633
H63   H     H_    0.275569 0.065743 0.215460 0.182317
H64   H     H_    0.360648 0.095191 0.239883 0.123774
H65   H     H_    0.347484 0.618025 0.430106 0.164922
H66   H     H_    0.291225 0.690319 0.456522 0.142557
H67   H     H_    0.256343 0.598261 0.452914 0.135956
H68   H     H_    0.382695 0.218042 0.244053 0.120196
H69   H     H_    0.204131 0.677884 0.383885 0.154522
H70   H     H_    0.255973 0.602386 0.358087 0.195623
H71   H     H_    0.365066 0.685333 0.346710 0.156351
H72   H     H_    0.314767 0.759520 0.372717 0.121541
H73   H     H_    0.402454 0.638402 0.580449 0.168354
H74   H     H_    0.367316 0.722023 0.552829 0.143030
H75   H     H_    0.460471 0.717668 0.575439 0.138474
H76   H     H_    0.381273 0.784931 0.637773 0.154275
H77   H     H_    0.418482 0.702625 0.664948 0.168522
H78   H     H_    0.297233 0.638036 0.645023 0.175920
H79   H     H_    0.116959 0.017138 0.046626 0.135137
H80   H     H_    0.264575 0.719995 0.617698 0.122944
H81   H     H_    0.795067 0.457039 0.294578 0.197998
H82   H     H_    0.889813 0.483787 0.287062 0.139411
H83   H     H_    0.850448 0.475205 0.350480 0.137628
H84   H     H_    0.861055 0.605886 0.326084 0.151149
H85   H     H_    0.766969 0.579176 0.333629 0.195480
H86   H     H_    0.761736 0.560216 0.235054 0.158299
H87   H     H_    0.852001 0.594222 0.231081 0.121651
H88   H     H_    0.711504 0.531819 0.607042 0.180946
H89   H     H_    0.768791 0.589114 0.566884 0.136457
H90   H     H_    0.116899 0.017118 0.953080 0.130615
H91   H     H_    0.807600 0.512168 0.600589 0.139446
H92   H     H_    0.839836 0.625150 0.646689 0.146019
H93   H     H_    0.778011 0.571357 0.684758 0.196645
H94   H     H_    0.672649 0.654021 0.645370 0.168343
H95   H     H_    0.743009 0.708120 0.619720 0.114592
H96   H     H_    0.883368 0.980078 0.046896 0.124730
H97   H     H_    0.820977 0.220634 0.327623 0.122198
H98   H     H_    0.883394 0.979566 0.953360 0.128915
H99   H     H_    0.617966 0.506507 0.546433 0.121711
H100  H     H_    0.617981 0.506753 0.453074 0.131550
H101  H     H_    0.381934 0.491948 0.546906 0.128196
H102  H     H_    0.381955 0.490833 0.453425 0.131306
H103  H     H_    0.078667 0.836449 0.459299 0.265117
H104  H     H_    0.181509 0.865438 0.409115 0.122913
H105  H     H_    0.186767 0.920388 0.466605 0.137610
H106  H     H_    0.154098 0.959796 0.406883 0.138215
H107  H     H_    0.099884 0.891523 0.583903 0.264703
H108  H     H_    0.119132 0.281096 0.741097 0.138737
H109  H     H_    0.054225 0.769935 0.573969 0.130509
H110  H     H_    0.998967 0.798538 0.520396 0.130841
H111  H     H_    0.975790 0.827917 0.584372 0.175923
H112  H     H_    0.622257 0.366113 0.958233 0.256840
H113  H     H_    0.534249 0.302800 0.891865 0.174011
H114  H     H_    0.466110 0.330945 0.938147 0.146355
H115  H     H_    0.539963 0.270852 0.956878 0.103513
H116  H     H_    0.610919 0.398453 0.083340 0.251875
H117  H     H_    0.570212 0.268818 0.047622 0.122701
H118  H     H_    0.483545 0.315912 0.042266 0.145335
H119  H     H_    0.119617 0.281638 0.257728 0.117911
H120  H     H_    0.528066 0.307575 0.103836 0.169093
H121  H     H_    0.736541 0.092329 0.611484 0.146801
H122  H     H_    0.721658 0.054755 0.547724 0.150354
H123  H     H_    0.738848 0.994963 0.601425 0.143264
H124  H     H_    0.849480 0.005206 0.548260 0.154911
H125  H     H_    0.863268 0.045792 0.610965 0.180427
H126  H     H_    0.844193 0.167726 0.577828 0.122882
H127  H     H_    0.817682 0.137795 0.518065 0.145270
H128  H     H_    0.734721 0.126580 0.442151 0.140962
H129  H     H_    0.760664 0.122418 0.374901 0.154816
H130  H     H_    0.301784 0.699730 0.169096 0.109795
H131  H     H_    0.730090 0.041290 0.407535 0.144809
H132  H     H_    0.863737 0.040094 0.396568 0.170279
H133  H     H_    0.839067 0.041610 0.462749 0.164321
H134  H     H_    0.852832 0.191376 0.447433 0.103976
H135  H     H_    0.903913 0.161043 0.394674 0.161351
H136  H     H_    0.045020 0.316478 0.602117 0.153871
H137  H     H_    0.054602 0.314421 0.532798 0.144578
H138  H     H_    0.993616 0.379186 0.562744 0.138781
H139  H     H_    0.921492 0.276645 0.525821 0.151412
H140  H     H_    0.914189 0.280805 0.593688 0.142321
H141  H     H_    0.301119 0.702707 0.830464 0.130260
H142  H     H_    0.967230 0.174451 0.607717 0.194908
H143  H     H_    0.039835 0.183327 0.564565 0.140084
H144  H     H_    0.076718 0.309050 0.396112 0.143400
H145  H     H_    0.147449 0.258568 0.429440 0.145162
H146  H     H_    0.137438 0.249482 0.360854 0.166815
H147  H     H_    0.087305 0.141906 0.404454 0.188185
H148  H     H_    0.015523 0.193780 0.372200 0.209451
H149  H     H_    0.986728 0.253423 0.456934 0.135594
H150  H     H_    0.057913 0.199312 0.485306 0.146675
H151  H     H_    0.251603 0.581123 0.117214 0.143678
H152  H     H_    0.619209 0.781032 0.240386 0.136730
H153  H     H_    0.225249 0.585172 0.050088 0.144500
H154  H     H_    0.233441 0.498228 0.081913 0.139996
H155  H     H_    0.341348 0.519353 0.026345 0.152153
H156  H     H_    0.364849 0.515180 0.092635 0.169054
H157  H     H_    0.380794 0.641716 0.102231 0.154762
H158  H     H_    0.333884 0.665842 0.045849 0.135873
H159  H     H_    0.233917 0.670947 0.910706 0.165841
H160  H     H_    0.233589 0.672609 0.980212 0.134845
H161  H     H_    0.227689 0.756878 0.945376 0.165567
H162  H     H_    0.351343 0.740747 0.979371 0.149789
H163  H     H_    0.671355 0.730030 0.825319 0.130589
H164  H     H_    0.352997 0.740426 0.910952 0.154913
H165  H     H_    0.379416 0.615839 0.903780 0.152342
H166  H     H_    0.337059 0.591598 0.961843 0.144300
H167  H     H_    0.535594 0.804608 0.126324 0.156704
H168  H     H_    0.562122 0.831131 0.061812 0.142070
H169  H     H_    0.487068 0.876656 0.093654 0.141255
H170  H     H_    0.440908 0.789003 0.029080 0.146753
H171  H     H_    0.414503 0.763508 0.092873 0.150511
H172  H     H_    0.513303 0.674442 0.098308 0.193881
H173  H     H_    0.550998 0.699423 0.039495 0.143385
H174  H     H_    0.199376 0.800093 0.331082 0.120161
H175  H     H_    0.614057 0.772559 0.904266 0.148216
H176  H     H_    0.625257 0.773751 0.973347 0.146353
H177  H     H_    0.689697 0.724691 0.933555 0.135798
H178  H     H_    0.602485 0.640274 0.976778 0.152984
H179  H     H_    0.597106 0.635770 0.908593 0.189184
H180  H     H_    0.485243 0.695406 0.902321 0.162899
H181  H     H_    0.493472 0.744846 0.959658 0.129560
H182  H     H_    0.138444 0.807754 0.152956 0.253842
H183  H     H_    0.198078 0.803689 0.072896 0.141981
H184  H     H_    0.214584 0.715290 0.100810 0.128350
N1    N     N_2   0.080753 0.888385 0.444351 -0.470633
N2    N     N_2   0.716375 0.322516 0.343919 -0.491998
N3    N     N_2   0.202869 0.396887 0.744290 -0.514713
N4    N     N_2   0.205795 0.397325 0.256325 -0.489992
N5    N     N_2   0.068840 0.879213 0.551988 -0.514166
N6    N     N_2   0.571050 0.380561 0.945140 -0.482308
N7    N     N_2   0.577673 0.382665 0.053298 -0.510816
N8    N     N_2   0.194382 0.800596 0.153557 -0.491314
N9    N     N_2   0.197437 0.798786 0.845730 -0.532292
N10   N     N_2   0.702873 0.896861 0.243731 -0.514897
N11   N     N_2   0.766433 0.834961 0.839582 -0.487311
N12   N     N_2   0.696731 0.304065 0.653967 -0.491225
O1    O     O_3   0.000000 0.000010 0.249960 -0.427329
O2    O     O_R   0.414520 0.646190 0.219700 -0.556373
O3    O     O_R   0.585480 0.646190 0.780300 -0.554506
O4    O     O_R   0.585480 0.646190 0.219700 -0.556036
O5    O     O_R   0.085460 0.853840 0.280340 -0.544532
O6    O     O_R   0.085460 0.853840 0.719660 -0.550042
O7    O     O_R   0.914540 0.853840 0.280340 -0.547515
O8    O     O_R   0.914540 0.853840 0.719660 -0.562333
O9    O     O_R   0.585460 0.353840 0.780340 -0.557226
O10   O     O_R   0.585460 0.353840 0.219660 -0.562138
O11   O     O_R   0.414540 0.353840 0.780340 -0.555652
O12   O     O_3   0.000000 0.000010 0.750040 -0.425168
O13   O     O_R   0.414540 0.353840 0.219660 -0.562021
O14   O     O_R   0.853820 0.914550 0.219610 -0.546015
O15   O     O_R   0.853820 0.914550 0.780390 -0.513624
O16   O     O_R   0.146180 0.914550 0.219610 -0.533231
O17   O     O_R   0.146180 0.914550 0.780390 -0.558023
O18   O     O_R   0.353820 0.414550 0.719610 -0.543943
O19   O     O_R   0.353820 0.414550 0.280390 -0.508372
O20   O     O_R   0.646180 0.414550 0.719610 -0.523047
O21   O     O_R   0.646180 0.414550 0.280390 -0.531739
O22   O     O_R   0.146170 0.085440 0.219600 -0.546226
O23   O     O_3   0.500000 0.500010 0.749960 -0.426097
O24   O     O_R   0.146170 0.085440 0.780400 -0.549143
O25   O     O_R   0.853830 0.085440 0.219600 -0.552443
O26   O     O_R   0.853830 0.085440 0.780400 -0.553752
O27   O     O_R   0.646170 0.585440 0.719600 -0.552114
O28   O     O_R   0.646170 0.585440 0.280400 -0.548361
O29   O     O_R   0.353830 0.585440 0.719600 -0.552541
O30   O     O_R   0.353830 0.585440 0.280400 -0.543220
O31   O     O_R   0.939270 0.999980 0.134160 -0.556495
O32   O     O_R   0.939270 0.999980 0.865840 -0.549583
O33   O     O_R   0.060730 0.999980 0.134160 -0.544603
O34   O     O_3   0.500000 0.500010 0.250040 -0.428508
O35   O     O_R   0.060730 0.999980 0.865840 -0.551230
O36   O     O_R   0.439270 0.499980 0.634160 -0.554755
O37   O     O_R   0.439270 0.499980 0.365840 -0.553940
O38   O     O_R   0.560730 0.499980 0.634160 -0.557765
O39   O     O_R   0.560730 0.499980 0.365840 -0.548513
O40   O     O_R   0.000000 0.060760 0.365760 -0.585527
O41   O     O_R   0.000000 0.060760 0.634240 -0.570756
O42   O     O_R   0.500000 0.560760 0.865760 -0.572088
O43   O     O_R   0.500000 0.560760 0.134240 -0.569004
O44   O     O_R   0.000000 0.939310 0.365770 -0.505065
O45   O     O_R   0.914520 0.146190 0.280300 -0.566855
O46   O     O_R   0.000000 0.939310 0.634230 -0.551455
O47   O     O_R   0.500000 0.439310 0.865770 -0.520150
O48   O     O_R   0.500000 0.439310 0.134230 -0.544740
O49   O     O_R   0.914520 0.146190 0.719700 -0.557991
O50   O     O_R   0.085480 0.146190 0.280300 -0.566307
O51   O     O_R   0.085480 0.146190 0.719700 -0.551983
O52   O     O_R   0.414520 0.646190 0.780300 -0.558719
Zn1   Zn    Zn3+2 0.000000 0.913260 0.293350 0.930282
Zn2   Zn    Zn3+2 0.413230 0.500000 0.293420 0.928409
Zn3   Zn    Zn3+2 0.586770 0.500000 0.706580 0.916400
Zn4   Zn    Zn3+2 0.586770 0.500000 0.293420 0.915074
Zn5   Zn    Zn3+2 0.000000 0.086780 0.293330 0.872274
Zn6   Zn    Zn3+2 0.000000 0.086780 0.706670 0.894087
Zn7   Zn    Zn3+2 0.500000 0.586780 0.793330 0.894164
Zn8   Zn    Zn3+2 0.500000 0.586780 0.206670 0.893518
Zn9   Zn    Zn3+2 0.000000 0.913260 0.706650 0.902307
Zn10  Zn    Zn3+2 0.500000 0.413260 0.793350 0.913886
Zn11  Zn    Zn3+2 0.500000 0.413260 0.206650 0.898021
Zn12  Zn    Zn3+2 0.913230 1.000000 0.206580 0.902373
Zn13  Zn    Zn3+2 0.913230 1.000000 0.793420 0.919024
Zn14  Zn    Zn3+2 0.086770 1.000000 0.206580 0.921658
Zn15  Zn    Zn3+2 0.086770 1.000000 0.793420 0.904912
Zn16  Zn    Zn3+2 0.413230 0.500000 0.706580 0.903595

loop_
_geom_bond_atom_site_label_1
_geom_bond_atom_site_label_2
_ccdc_geom_bond_type
O38   Zn3   S    
C11   H134  S    
C122  O15   A    
C27   H161  S    
C87   C91   A    
C142  C146  A    
O5    Zn1   S    
C19   C20   S    
C70   C150  A    
C35   C154  A    
C110  C118  A    
C39   H20   S    
C34   H184  S    
H17   N12   S    
C46   C155  A    
C16   H139  S    
C20   H145  S    
C27   H159  S    
C131  O37   A    
C41   N3    S    
O4    Zn8   S    
C138  C143  A    
C35   H130  S    
C95   O51   A    
C28   H172  S    
C45   H34   S    
C108  C109  A    
C41   H27   S    
C21   C152  S    
O44   Zn1   S    
C23   H153  S    
C6    H113  S    
C110  C111  A    
C112  C113  A    
C134  C143  S    
C127  O33   A    
C2    C159  A    
C75   C117  S    
C43   H41   S    
C30   H168  S    
C60   H80   S    
C91   C100  A    
C132  O40   A    
C32   H178  S    
C140  C152  S    
C13   C160  A    
C133  O41   A    
C88   C97   A    
C69   H89   S    
C99   C121  S    
C8    H126  S    
C83   C88   A    
C49   H44   S    
O1    Zn5   S    
C21   C22   S    
C52   H50   S    
O11   Zn10  S    
O46   Zn9   S    
C145  C146  A    
C55   H58   S    
H8    N10   S    
C120  O17   A    
C51   C52   S    
C158  N12   S    
C82   C96   A    
C86   C90   A    
O27   Zn3   S    
O23   Zn10  S    
C25   H166  S    
O36   Zn16  S    
C15   H142  S    
C4    H105  S    
C53   C82   S    
C84   O50   A    
C102  C159  A    
C43   C44   S    
C136  C141  A    
H26   N3    S    
O21   Zn4   S    
C38   H16   S    
C99   C156  A    
C97   C154  A    
C134  O47   A    
H182  N8    S    
C64   H84   S    
H116  N7    S    
C1    O25   A    
C101  C158  A    
O19   Zn2   S    
C96   C104  A    
C84   O22   A    
C2    C71   A    
C89   H2    S    
C15   C149  S    
C39   H18   S    
C145  N1    S    
C56   C83   S    
C111  H100  S    
C12   H133  S    
C150  H1    S    
C70   C79   A    
C5    H109  S    
O1    Zn12  S    
O10   Zn11  S    
C98   C120  S    
C13   C72   A    
C9    H125  S    
C53   H63   S    
C63   H87   S    
C21   H157  S    
C41   H29   S    
O9    Zn10  S    
C159  N2    S    
C129  O32   A    
C32   C33   S    
C10   H122  S    
C33   H177  S    
C50   H55   S    
O17   Zn15  S    
O18   Zn16  S    
C69   H91   S    
O41   Zn6   S    
C128  O27   A    
C22   H155  S    
C52   H52   S    
C22   C23   S    
C80   C93   A    
C7    H117  S    
C76   C85   A    
C50   C81   S    
H103  N1    S    
C78   C87   A    
C137  C142  A    
C44   H38   S    
C134  O42   A    
C147  C148  A    
C53   C54   S    
C11   H135  S    
C117  O30   A    
C105  C107  A    
C5    H110  S    
C20   H144  S    
O12   Zn6   S    
C96   H68   S    
C108  C115  A    
C149  C151  S    
C37   H9    S    
C38   H14   S    
C45   H37   S    
H21   N2    S    
C59   H66   S    
C73   O49   A    
C100  C157  A    
C130  O36   A    
C14   H128  S    
C38   N11   S    
C124  O21   A    
C15   H143  S    
O15   Zn13  S    
C9    C10   S    
C40   H23   S    
C45   H36   S    
C66   C67   S    
O16   Zn14  S    
C3    C24   A    
C47   C80   S    
C93   H46   S    
C36   H6    S    
C57   C156  A    
C17   H137  S    
C18   H150  S    
O51   Zn6   S    
C19   H147  S    
C54   H61   S    
C55   H59   S    
C40   N2    S    
C25   C26   S    
C65   H81   S    
C94   H57   S    
C56   H71   S    
C95   O24   A    
C132  O44   A    
C106  O29   A    
C139  O4    A    
C58   H70   S    
O40   Zn5   S    
O45   Zn5   S    
C31   C32   S    
C125  O11   A    
O1    Zn1   S    
C4    H104  S    
C105  H79   S    
C111  C116  A    
C109  C114  A    
C51   H54   S    
C11   C151  S    
C34   N8    S    
C47   H49   S    
C154  N8    S    
C62   H74   S    
C13   H108  S    
C90   C99   A    
C59   H67   S    
C132  C141  S    
C54   C55   S    
C76   C106  S    
C62   H75   S    
C107  H90   S    
O48   Zn11  S    
C105  C115  A    
C74   C84   S    
C136  C137  A    
C37   H11   S    
C39   H19   S    
C36   N9    S    
C141  C145  A    
C12   H132  S    
C18   C151  S    
C16   H140  S    
O22   Zn14  S    
C89   C98   A    
C126  O13   A    
C46   H141  S    
C81   C94   A    
O3    Zn7   S    
O23   Zn7   S    
O39   Zn4   S    
O12   Zn13  S    
C36   H5    S    
C56   C58   S    
C113  H102  S    
C61   C62   S    
C6    H114  S    
C63   C64   S    
C2    H97   S    
C152  C153  S    
C156  N10   S    
C14   H131  S    
C30   H169  S    
C91   H24   S    
C119  O5    A    
C3    N4    S    
O34   Zn8   S    
C49   H43   S    
O50   Zn5   S    
C78   C128  S    
O43   Zn8   S    
C65   H83   S    
C26   C27   S    
C47   H48   S    
C37   H10   S    
C28   C29   S    
C103  C160  A    
C25   H165  S    
C4    H106  S    
C130  O38   A    
O34   Zn11  S    
C18   C19   S    
O6    Zn9   S    
C109  H98   S    
C146  N5    S    
C49   H42   S    
C42   H31   S    
C66   H94   S    
C16   C17   S    
C48   H45   S    
C5    N5    S    
C33   H176  S    
C43   H40   S    
C29   H171  S    
C29   C30   S    
C7    N7    S    
C40   H22   S    
C72   C81   A    
C112  H101  S    
C26   H164  S    
C67   H92   S    
O26   Zn13  S    
O52   Zn7   S    
C62   H73   S    
C108  H96   S    
C39   N12   S    
C74   C82   A    
C102  C124  S    
C42   N4    S    
C34   H183  S    
C68   C78   A    
C127  O31   A    
C27   H160  S    
C25   C153  S    
C57   C77   A    
C117  O2    A    
C135  O48   A    
O2    Zn8   S    
C85   C89   A    
C58   C59   S    
O12   Zn15  S    
C36   H7    S    
C9    H124  S    
C60   C61   S    
C121  O7    A    
H30   N4    S    
C10   H123  S    
C23   H154  S    
C107  C114  A    
C118  C130  S    
O13   Zn11  S    
C1    O45   A    
C50   H56   S    
C14   H129  S    
C50   C51   S    
C133  C142  S    
C1    C71   S    
C125  O18   A    
O7    Zn1   S    
C92   C101  A    
O23   Zn16  S    
C138  C153  S    
C48   C49   S    
C94   C103  A    
C63   C86   S    
C22   H156  S    
C121  O14   A    
C114  C129  S    
C68   C157  A    
C136  C151  S    
C44   C45   S    
C98   C155  A    
C20   H146  S    
C150  C158  A    
O29   Zn16  S    
C140  C144  A    
C6    N6    S    
O47   Zn10  S    
C93   C102  A    
C60   C85   S    
C133  O46   A    
C24   H119  S    
O8    Zn9   S    
H112  N6    S    
C64   C65   S    
C8    C149  S    
C110  H99   S    
O33   Zn14  S    
C75   C83   A    
C38   H15   S    
O31   Zn12  S    
C48   H47   S    
C135  O43   A    
C97   C119  S    
C148  N7    S    
O20   Zn3   S    
O1    Zn14  S    
C59   H65   S    
C106  O52   A    
O28   Zn4   S    
C26   H162  S    
C41   H28   S    
O35   Zn15  S    
C88   H174  S    
C3    C104  A    
C119  O16   A    
O42   Zn7   S    
C144  C148  A    
C92   H35   S    
C46   C76   A    
C139  O28   A    
O23   Zn3   S    
C53   H64   S    
C143  C147  A    
C28   H173  S    
C116  C131  S    
C90   H13   S    
C35   C75   A    
C21   H158  S    
C101  C123  S    
C10   H121  S    
C68   H163  S    
C54   H62   S    
C43   C79   S    
C15   C16   S    
C115  C127  S    
C56   H72   S    
C4    N1    S    
C32   H179  S    
C72   C95   S    
O14   Zn12  S    
O34   Zn4   S    
C64   H85   S    
C8    C9    S    
C52   H51   S    
C122  O8    A    
C23   H151  S    
C73   O26   A    
C7    H118  S    
C124  O10   A    
H107  N5    S    
C113  C116  A    
C51   H53   S    
C8    H127  S    
C137  C149  S    
C70   C73   S    
C103  C125  S    
C71   C80   A    
C31   C153  S    
C30   H167  S    
C128  O3    A    
C67   H93   S    
H12   N11   S    
C5    H111  S    
C160  N3    S    
C131  O39   A    
C42   H33   S    
O32   Zn13  S    
C34   H3    S    
C66   C87   S    
C40   H25   S    
C67   C69   S    
H4    N9    S    
C31   H181  S    
O24   Zn15  S    
C69   H88   S    
C47   C48   S    
C77   C139  S    
O30   Zn2   S    
C6    H115  S    
C79   C92   A    
C138  C140  A    
C135  C144  S    
C12   C14   S    
C77   C86   A    
C28   C152  S    
O25   Zn12  S    
C60   H78   S    
C157  N11   S    
O49   Zn6   S    
C63   H86   S    
C17   H138  S    
C18   H149  S    
C129  O35   A    
C19   H148  S    
C57   H152  S    
C155  N9    S    
C123  O9    A    
C11   C12   S    
C55   H60   S    
C65   H82   S    
C61   H77   S    
O12   Zn9   S    
C58   H69   S    
C112  C118  A    
C24   C74   A    
O34   Zn2   S    
C147  N6    S    
C37   N10   S    
O37   Zn2   S    
C100  C122  S    
C123  O20   A    
C42   H32   S    
C104  C126  S    
C66   H95   S    
C44   H39   S    
C61   H76   S    
C33   H175  S    
C29   H170  S    
C120  O6    A    
C126  O19   A    
C31   H180  S    
C7    H120  S    
C17   H136  S    
