data_mof_unit_4027.cif
_audit_creation_date              2012-12-11T15:12:20-0500
_audit_creation_method            fapswitch 2.2
_symmetry_space_group_name_H-M    P1
_symmetry_Int_Tables_number       1
_space_group_crystal_system       triclinic
_cell_length_a                    30.429976
_cell_length_b                    22.196304
_cell_length_c                    17.968863
_cell_angle_alpha                 89.699383
_cell_angle_beta                  123.299819
_cell_angle_gamma                 89.784159
_cell_volume                      10143.5564266

loop_
_atom_site_label
_atom_site_type_symbol
_atom_type_description
_atom_site_fract_x
_atom_site_fract_y
_atom_site_fract_z
_atom_type_partial_charge
C1    C     C_R   0.541504 0.587892 0.737243 -0.126195
C2    C     C_R   0.303902 0.784114 0.414390 0.141171
C3    C     C_R   0.307223 0.348768 0.930420 0.127086
C4    C     C_R   0.871319 0.316538 0.134802 0.128365
C5    C     C_R   0.129129 0.688733 0.879178 0.127189
C6    C     C_R   0.128963 0.307763 0.880927 0.129428
C7    C     C_R   0.785733 0.851920 0.951298 0.137146
C8    C     C_R   0.229032 0.644861 0.932632 0.086064
C9    C     C_R   0.767354 0.352374 0.070374 0.085896
C10   C     C_R   0.704124 0.779863 0.932207 0.087335
C11   C     C_R   0.230272 0.348504 0.940294 0.089356
C12   C     C_R   0.793637 0.310932 0.142537 0.087112
C13   C     C_R   0.305313 0.217090 0.419258 0.137953
C14   C     C_R   0.202516 0.685396 0.859344 0.085204
C15   C     C_R   0.204016 0.310120 0.865543 0.085687
C16   C     C_R   0.742831 0.801868 0.016461 0.089790
C17   C     C_R   0.796962 0.382438 0.042714 -0.221272
C18   C     C_R   0.200797 0.618842 0.965854 -0.226218
C19   C     C_R   0.202230 0.372441 0.975162 -0.227895
C20   C     C_R   0.703310 0.800477 0.856637 -0.229950
C21   C     C_R   0.226482 0.700155 0.813059 -0.222898
C22   C     C_R   0.767754 0.290964 0.183447 -0.228859
C23   C     C_R   0.736635 0.794677 0.088460 -0.232743
C24   C     C_R   0.697059 0.780139 0.583770 0.146910
C25   C     C_R   0.227964 0.297859 0.818458 -0.225026
C26   C     C_R   0.848847 0.365750 0.076691 -0.187135
C27   C     C_R   0.150787 0.639568 0.937434 -0.188314
C28   C     C_R   0.151528 0.353614 0.943633 -0.185028
C29   C     C_R   0.742587 0.838570 0.866346 -0.199106
C30   C     C_R   0.277906 0.682114 0.845735 -0.193345
C31   C     C_R   0.714767 0.303290 0.145136 -0.183568
C32   C     C_R   0.697056 0.758807 0.080271 -0.185378
C33   C     C_R   0.278152 0.319138 0.848870 -0.184196
C34   C     C_R   0.573422 0.612908 0.425163 -0.135062
C35   C     C_R   0.284397 0.861792 0.576616 0.143919
C36   C     C_R   0.426171 0.387471 0.574968 -0.142467
C37   C     C_R   0.424913 0.612429 0.573244 -0.132936
C38   C     C_R   0.574019 0.387405 0.425965 -0.133612
C39   C     C_R   0.097003 0.078674 0.425197 -0.155445
C40   C     C_R   0.903455 0.920442 0.575041 -0.131686
C41   C     C_R   0.902924 0.078202 0.574804 -0.155780
C42   C     C_R   0.096138 0.919860 0.424544 -0.129934
C43   C     C_R   0.382445 0.580864 0.255066 -0.141609
C44   C     C_R   0.616972 0.416494 0.743736 -0.155206
C45   C     C_R   0.615198 0.588659 0.739049 -0.168124
C46   C     C_R   0.715013 0.138064 0.421007 0.144268
C47   C     C_R   0.382333 0.420723 0.255056 -0.146464
C48   C     C_R   0.894617 0.110571 0.294737 -0.143956
C49   C     C_R   0.106355 0.890436 0.708902 -0.136805
C50   C     C_R   0.105132 0.110194 0.705912 -0.137067
C51   C     C_R   0.883990 0.912848 0.262049 -0.161152
C52   C     C_R   0.591969 0.608447 0.783074 0.135752
C53   C     C_R   0.402053 0.406859 0.202970 0.111056
C54   C     C_R   0.402193 0.594533 0.202689 0.097321
C55   C     C_R   0.596293 0.400962 0.794219 0.114794
C56   C     C_R   0.075968 0.143685 0.731016 0.098897
C57   C     C_R   0.716058 0.861552 0.422739 0.143387
C58   C     C_R   0.905110 0.895294 0.213946 0.089247
C59   C     C_R   0.923586 0.144954 0.270360 0.101274
C60   C     C_R   0.077594 0.857082 0.734804 0.091013
C61   C     C_R   0.608651 0.646983 0.499109 0.076136
C62   C     C_R   0.391417 0.352994 0.501115 0.079199
C63   C     C_R   0.390412 0.647199 0.498585 0.076805
C64   C     C_R   0.609006 0.352658 0.500367 0.075304
C65   C     C_R   0.147178 0.090355 0.498255 0.088572
C66   C     C_R   0.853484 0.908023 0.502123 0.083752
C67   C     C_R   0.852479 0.089481 0.501850 0.088724
C68   C     C_R   0.284200 0.139961 0.580748 0.143389
C69   C     C_R   0.146625 0.908358 0.497393 0.079607
C70   C     C_R   0.612903 0.263623 0.420441 -0.253451
C71   C     C_R   0.387194 0.737285 0.577526 -0.258449
C72   C     C_R   0.386571 0.264601 0.582104 -0.252878
C73   C     C_R   0.612819 0.737329 0.420056 -0.262481
C74   C     C_R   0.188899 0.886100 0.414676 -0.256624
C75   C     C_R   0.809172 0.110390 0.583359 -0.259217
C76   C     C_R   0.812015 0.881887 0.584705 -0.249609
C77   C     C_R   0.190843 0.113247 0.417746 -0.258498
C78   C     C_R   0.627663 0.291318 0.500974 0.113438
C79   C     C_R   0.685375 0.193324 0.502030 0.027039
C80   C     C_R   0.371897 0.708697 0.497321 0.115437
C81   C     C_R   0.372642 0.292093 0.501365 0.111977
C82   C     C_R   0.627582 0.707971 0.500043 0.116917
C83   C     C_R   0.193622 0.895834 0.495935 0.114433
C84   C     C_R   0.805133 0.101667 0.502472 0.114513
C85   C     C_R   0.806715 0.894502 0.503509 0.111783
C86   C     C_R   0.194520 0.103567 0.498270 0.114449
C87   C     C_R   0.665343 0.263336 0.582130 -0.253363
C88   C     C_R   0.333880 0.736057 0.415887 -0.258309
C89   C     C_R   0.335475 0.264534 0.420422 -0.253537
C90   C     C_R   0.314005 0.806592 0.495532 0.026943
C91   C     C_R   0.666005 0.733655 0.581669 -0.260807
C92   C     C_R   0.242796 0.888238 0.576324 -0.258765
C93   C     C_R   0.756472 0.110853 0.421679 -0.261328
C94   C     C_R   0.757380 0.888676 0.423233 -0.256962
C95   C     C_R   0.242808 0.112486 0.579441 -0.260427
C96   C     C_3   0.525026 0.387591 0.919814 0.230542
C97   C     C_3   0.465279 0.384995 0.861100 -0.905569
C98   C     C_3   0.470193 0.678119 0.118875 0.249319
C99   C     C_3   0.528870 0.671704 0.159007 -0.945079
C100  C     C_3   0.443241 0.463001 0.061101 0.244155
C101  C     C_R   0.314431 0.195264 0.500396 0.027631
C102  C     C_3   0.499947 0.481302 0.100060 -0.877106
C103  C     C_3   0.532429 0.617822 0.925194 0.256078
C104  C     C_3   0.496416 0.565692 0.911156 -0.924404
C105  C     C_3   0.041106 0.830958 0.892450 0.227543
C106  C     C_3   0.994806 0.864951 0.883211 -0.878068
C107  C     C_3   0.028595 0.245331 0.292781 0.226848
C108  C     C_3   0.079187 0.226594 0.300915 -0.876511
C109  C     C_3   0.891821 0.998998 0.059807 0.232922
C110  C     C_3   0.937300 0.041731 0.088420 -0.850046
C111  C     C_3   0.971877 0.241116 0.722882 0.224030
C112  C     C_R   0.455440 0.419103 0.256178 -0.141443
C113  C     C_R   0.686799 0.804267 0.503024 0.028039
C114  C     C_3   0.922107 0.220317 0.715627 -0.878252
C115  C     C_R   0.277126 0.844692 0.495194 0.027370
C116  C     C_R   0.721928 0.154605 0.502363 0.026725
C117  C     C_R   0.723762 0.842158 0.503900 0.026964
C118  C     C_R   0.277758 0.156904 0.499661 0.026706
C119  C     C_R   0.642188 0.215314 0.420339 0.139403
C120  C     C_R   0.357774 0.785569 0.577289 0.143240
C121  C     C_R   0.357118 0.216763 0.582195 0.137892
C122  C     C_R   0.642612 0.785305 0.421007 0.143988
C123  C     C_R   0.230254 0.859890 0.413758 0.142849
C124  C     C_R   0.455342 0.580306 0.255568 -0.152208
C125  C     C_R   0.768124 0.137922 0.583918 0.143606
C126  C     C_R   0.770975 0.855159 0.585448 0.143436
C127  C     C_R   0.231981 0.140776 0.417838 0.143096
C128  C     C_R   0.738239 0.193125 0.664209 -0.204182
C129  C     C_R   0.260276 0.805146 0.333382 -0.206084
C130  C     C_R   0.262656 0.195711 0.338220 -0.203936
C131  C     C_R   0.741695 0.797843 0.664964 -0.223677
C132  C     C_R   0.331042 0.846400 0.657337 -0.208244
C133  C     C_R   0.668998 0.154754 0.340153 -0.210738
C134  C     C_R   0.669152 0.848098 0.341951 -0.207163
C135  C     C_R   0.543869 0.417651 0.742728 -0.091609
C136  C     C_R   0.329699 0.156257 0.661879 -0.210584
C137  C     C_R   0.367658 0.808313 0.657679 -0.207789
C138  C     C_R   0.632651 0.193299 0.339820 -0.202528
C139  C     C_R   0.632555 0.810000 0.341097 -0.203091
C140  C     C_R   0.366041 0.194650 0.662606 -0.200440
C141  C     C_R   0.774659 0.154625 0.664526 -0.202894
C142  C     C_R   0.223460 0.842877 0.333071 -0.204419
C143  C     C_R   0.226013 0.157760 0.337510 -0.199614
C144  C     C_R   0.778491 0.835442 0.665885 -0.202728
C145  C     C_R   0.370696 0.610311 0.105626 -0.038483
C146  C     C_R   0.031404 0.109584 0.705390 -0.119931
C147  C     C_R   0.625976 0.381632 0.889495 -0.016348
C148  C     C_R   0.614492 0.649250 0.857977 -0.026912
C149  C     C_R   0.369936 0.392051 0.106133 -0.037984
C150  C     C_R   0.909713 0.206955 0.230490 -0.037359
C151  C     C_R   0.092122 0.797021 0.780171 -0.034994
C152  C     C_R   0.089914 0.203945 0.774775 -0.035343
C153  C     C_R   0.872126 0.873672 0.123238 -0.029796
C154  C     C_R   0.361797 0.644934 0.968722 -0.383768
C155  C     C_R   0.631166 0.335154 0.017205 -0.382970
C156  C     C_R   0.632269 0.681798 0.000037 -0.398938
C157  C     C_R   0.956979 0.913265 0.260346 -0.098033
C158  C     C_R   0.359693 0.364236 0.966197 -0.363435
C159  C     C_R   0.919791 0.293225 0.156565 -0.371036
C160  C     C_R   0.084000 0.716847 0.865056 -0.370854
C161  C     C_R   0.081268 0.283218 0.859356 -0.370138
C162  C     C_R   0.827826 0.886578 0.963469 -0.388159
C163  C     C_R   0.393800 0.625980 0.057831 0.526320
C164  C     C_R   0.600615 0.358886 0.930458 0.553534
C165  C     C_R   0.605635 0.643369 0.926785 0.552674
C166  C     C_R   0.390754 0.387691 0.052381 0.543931
C167  C     C_R   0.939679 0.239200 0.205035 0.547011
C168  C     C_R   0.968270 0.110573 0.295124 -0.136732
C169  C     C_R   0.066593 0.771956 0.819467 0.554913
C170  C     C_R   0.060861 0.232382 0.805401 0.551200
C171  C     C_R   0.870082 0.900367 0.050117 0.557237
C172  C     C_R   0.315672 0.612777 0.060706 -0.325141
C173  C     C_R   0.681136 0.384082 0.939455 -0.319911
C174  C     C_R   0.643520 0.696969 0.856703 -0.340864
C175  C     C_R   0.316303 0.380482 0.066690 -0.327939
C176  C     C_R   0.863782 0.234185 0.215659 -0.327369
C177  C     C_R   0.134311 0.765096 0.787447 -0.318067
C178  C     C_R   0.134996 0.232967 0.789192 -0.327139
C179  C     C_R   0.031948 0.890293 0.706267 -0.117394
C180  C     C_R   0.832641 0.835489 0.109663 -0.336628
C181  C     C_R   0.283609 0.634359 0.972843 0.091102
C182  C     C_R   0.711917 0.359244 0.025662 0.090399
C183  C     C_R   0.669230 0.736267 0.928096 0.091832
C184  C     C_R   0.284028 0.361335 0.978381 0.092067
C185  C     C_R   0.843779 0.288447 0.167868 0.090250
C186  C     C_R   0.154456 0.711979 0.838750 0.089299
C187  C     C_R   0.155286 0.284669 0.842231 0.089523
C188  C     C_R   0.786808 0.830285 0.026284 0.088340
C189  C     C_R   0.624594 0.611271 0.573403 -0.125483
C190  C     C_R   0.695178 0.215170 0.583280 0.138668
C191  C     C_R   0.376053 0.388199 0.426447 -0.127837
C192  C     C_R   0.375543 0.611949 0.425049 -0.131536
C193  C     C_R   0.624392 0.387904 0.574332 -0.125297
C194  C     C_R   0.145879 0.078917 0.572596 -0.144912
C195  C     C_R   0.854457 0.919703 0.427374 -0.125736
C196  C     C_R   0.853783 0.078550 0.427491 -0.145386
C197  C     C_R   0.145897 0.920396 0.572193 -0.140343
C198  C     C_R   0.307686 0.652848 0.928214 0.135527
C199  C     C_R   0.685956 0.333610 0.063527 0.140813
C200  C     C_R   0.665375 0.726425 0.002455 0.144489
H1    H     H_    0.514427 0.589201 0.758088 0.121035
H2    H     H_    0.298010 0.602577 0.096948 0.140479
H3    H     H_    0.448232 0.412465 0.890875 0.221934
H4    H     H_    0.450741 0.403054 0.793610 0.239476
H5    H     H_    0.464513 0.699222 0.169185 0.095126
H6    H     H_    0.453411 0.708251 0.059415 0.095960
H7    H     H_    0.535615 0.649934 0.110689 0.259009
H8    H     H_    0.547381 0.716771 0.175676 0.209757
H9    H     H_    0.547520 0.643559 0.220323 0.250500
H10   H     H_    0.426411 0.493565 0.088507 0.116930
H11   H     H_    0.420922 0.468907 0.987422 0.103193
H12   H     H_    0.517719 0.452357 0.072943 0.239898
H13   H     H_    0.300318 0.381483 0.107175 0.142704
H14   H     H_    0.501262 0.528989 0.082670 0.256384
H15   H     H_    0.523295 0.476725 0.173703 0.241319
H16   H     H_    0.509638 0.650911 0.869681 0.068695
H17   H     H_    0.544548 0.639535 0.989187 0.099648
H18   H     H_    0.518286 0.531841 0.965176 0.259078
H19   H     H_    0.462264 0.582371 0.912094 0.225126
H20   H     H_    0.481883 0.543921 0.846168 0.245952
H21   H     H_    0.072085 0.864274 0.906693 0.091007
H22   H     H_    0.056706 0.798945 0.949640 0.100959
H23   H     H_    0.963215 0.832947 0.869236 0.260919
H24   H     H_    0.648445 0.700413 0.801647 0.148207
H25   H     H_    0.007748 0.889040 0.945976 0.219214
H26   H     H_    0.978960 0.898383 0.827932 0.237761
H27   H     H_    0.031385 0.231922 0.355076 0.098877
H28   H     H_    0.025115 0.295345 0.285405 0.097051
H29   H     H_    0.078816 0.242930 0.242044 0.255319
H30   H     H_    0.113547 0.246024 0.362054 0.215720
H31   H     H_    0.082982 0.176845 0.304584 0.247303
H32   H     H_    0.878386 0.005373 0.105870 0.094615
H33   H     H_    0.859210 0.011218 0.990802 0.100624
H34   H     H_    0.950931 0.038038 0.042591 0.254468
H35   H     H_    0.153599 0.784328 0.757817 0.142427
H36   H     H_    0.924423 0.088845 0.087009 0.223760
H37   H     H_    0.970427 0.030398 0.157179 0.243922
H38   H     H_    0.967538 0.233075 0.658013 0.097422
H39   H     H_    0.975800 0.290420 0.736447 0.098391
H40   H     H_    0.924148 0.231148 0.777729 0.256077
H41   H     H_    0.887226 0.243274 0.658514 0.216943
H42   H     H_    0.917781 0.170998 0.705333 0.245572
H43   H     H_    0.841050 0.210382 0.235096 0.143586
H44   H     H_    0.836943 0.812908 0.166935 0.159132
H45   H     H_    0.156554 0.212498 0.764508 0.142988
H46   H     H_    0.379928 0.656765 0.932936 0.145151
H47   H     H_    0.611861 0.313789 0.046112 0.145255
H48   H     H_    0.629644 0.674471 0.057150 0.147343
H49   H     H_    0.482676 0.421489 0.235942 0.157378
H50   H     H_    0.377161 0.357040 0.928131 0.155559
H51   H     H_    0.941371 0.315358 0.132356 0.154542
H52   H     H_    0.064003 0.698171 0.894524 0.151895
H53   H     H_    0.060577 0.301866 0.887598 0.154644
H54   H     H_    0.826948 0.904836 0.906607 0.153054
H55   H     H_    0.780875 0.419186 0.995160 0.131414
H56   H     H_    0.216780 0.582341 0.013932 0.129087
H57   H     H_    0.218610 0.406857 0.025672 0.129293
H58   H     H_    0.671614 0.789507 0.789662 0.136277
H59   H     H_    0.206070 0.725283 0.751177 0.134230
H60   H     H_    0.481748 0.574172 0.233881 0.164141
H61   H     H_    0.787805 0.265525 0.245106 0.133039
H62   H     H_    0.761735 0.817214 0.151265 0.129847
H63   H     H_    0.207870 0.273542 0.756471 0.132084
H64   H     H_    0.652403 0.622146 0.642031 0.091168
H65   H     H_    0.349625 0.376451 0.357472 0.095037
H66   H     H_    0.349162 0.623862 0.355838 0.094992
H67   H     H_    0.651233 0.375865 0.643353 0.095398
H68   H     H_    0.179023 0.074069 0.640518 0.086075
H69   H     H_    0.821319 0.923137 0.359198 0.082672
H70   H     H_    0.820506 0.073555 0.359882 0.084870
H71   H     H_    0.517940 0.423910 0.765267 0.137772
H72   H     H_    0.179359 0.925060 0.639706 0.085441
H73   H     H_    0.552589 0.626597 0.356305 0.097098
H74   H     H_    0.446244 0.374452 0.644060 0.111710
H75   H     H_    0.443166 0.625263 0.641519 0.087547
H76   H     H_    0.553884 0.374537 0.357157 0.102015
H77   H     H_    0.085662 0.073638 0.357116 0.088963
H78   H     H_    0.914883 0.925318 0.643194 0.088199
H79   H     H_    0.914541 0.072639 0.643031 0.089540
H80   H     H_    0.083777 0.923673 0.355708 0.088128
H81   H     H_    0.341707 0.577004 0.232990 0.085026
H82   H     H_    0.999357 0.119899 0.712382 0.164046
H83   H     H_    0.657973 0.418432 0.766683 0.090760
H84   H     H_    0.656520 0.590832 0.763747 0.101389
H85   H     H_    0.341555 0.426695 0.232231 0.086506
H86   H     H_    0.857837 0.121769 0.286934 0.097148
H87   H     H_    0.143984 0.879269 0.719687 0.096520
H88   H     H_    0.142090 0.121740 0.714775 0.097172
H89   H     H_    0.842842 0.913663 0.239159 0.101990
H90   H     H_    0.582110 0.282728 0.357320 0.125725
H91   H     H_    0.418499 0.718871 0.640773 0.116057
H92   H     H_    0.416855 0.283493 0.645146 0.135346
H93   H     H_    0.982867 0.913762 0.236679 0.131490
H94   H     H_    0.581483 0.719863 0.356734 0.126146
H95   H     H_    0.151939 0.893869 0.351978 0.118879
H96   H     H_    0.845481 0.100726 0.646216 0.118761
H97   H     H_    0.849230 0.887757 0.647354 0.124418
H98   H     H_    0.154767 0.104087 0.354675 0.119257
H99   H     H_    0.675180 0.282035 0.644893 0.120594
H100  H     H_    0.323709 0.716780 0.353266 0.118970
H101  H     H_    0.326274 0.283058 0.357606 0.119930
H102  H     H_    0.675711 0.714158 0.644230 0.115622
H103  H     H_    0.247985 0.897766 0.639580 0.115447
H104  H     H_    0.000115 0.121618 0.287937 0.164967
H105  H     H_    0.751711 0.102079 0.358561 0.115605
H106  H     H_    0.751834 0.900486 0.360168 0.115269
H107  H     H_    0.247354 0.103105 0.642370 0.115894
H108  H     H_    0.745719 0.208909 0.727113 0.133803
H109  H     H_    0.252608 0.788926 0.270546 0.129945
H110  H     H_    0.255681 0.211557 0.275420 0.134560
H111  H     H_    0.750148 0.778868 0.727198 0.138228
H112  H     H_    0.337431 0.860210 0.720304 0.127994
H113  H     H_    0.662902 0.141452 0.277204 0.130401
H114  H     H_    0.662418 0.863647 0.279191 0.128823
H115  H     H_    0.999241 0.878471 0.710647 0.168237
H116  H     H_    0.335394 0.142682 0.724652 0.131444
H117  H     H_    0.401645 0.793266 0.720878 0.126234
H118  H     H_    0.599134 0.209149 0.276643 0.135233
H119  H     H_    0.598192 0.796920 0.277777 0.125724
H120  H     H_    0.399135 0.210152 0.725880 0.138329
H121  H     H_    0.809616 0.141318 0.727645 0.135501
H122  H     H_    0.188039 0.855238 0.270011 0.129415
H123  H     H_    0.191406 0.144911 0.274214 0.136534
H124  H     H_    0.814393 0.845606 0.729010 0.134911
H125  H     H_    0.870134 0.388768 0.052643 0.130780
H126  H     H_    0.699923 0.401507 0.907993 0.139684
H127  H     H_    0.130785 0.620020 0.966336 0.129354
H128  H     H_    0.131161 0.372515 0.972265 0.129243
H129  H     H_    0.740071 0.856038 0.807771 0.139573
H130  H     H_    0.295592 0.695198 0.809699 0.131697
H131  H     H_    0.695568 0.285380 0.176426 0.132058
H132  H     H_    0.693776 0.753098 0.136994 0.133088
H133  H     H_    0.295282 0.309528 0.810873 0.132692
H134  H     H_    0.537064 0.435478 0.924685 0.107535
H135  H     H_    0.537384 0.370645 0.986995 0.112883
H136  H     H_    0.452032 0.337709 0.855368 0.260109
N1    N     N_R   0.532970 0.559900 0.665210 -0.046315
N2    N     N_R   0.402100 0.440070 0.454470 -0.040913
N3    N     N_R   0.402100 0.559930 0.454470 -0.041210
N4    N     N_R   0.597900 0.440070 0.545530 -0.040768
N5    N     N_R   0.097900 0.059930 0.545530 -0.036329
N6    N     N_R   0.902100 0.940070 0.454470 -0.036064
N7    N     N_R   0.902100 0.059930 0.454470 -0.036189
N8    N     N_R   0.097900 0.940070 0.545530 -0.035943
N9    N     N_R   0.567170 0.559950 0.454460 -0.042626
N10   N     N_R   0.432830 0.440050 0.545540 -0.043927
N11   N     N_R   0.432830 0.559950 0.545540 -0.043007
N12   N     N_R   0.467030 0.440100 0.334790 -0.047070
N13   N     N_R   0.567170 0.440050 0.454460 -0.043524
N14   N     N_R   0.067170 0.059950 0.454460 -0.039617
N15   N     N_R   0.932830 0.940050 0.545540 -0.041805
N16   N     N_R   0.932830 0.059950 0.545540 -0.040110
N17   N     N_R   0.067170 0.940050 0.454460 -0.038948
N18   N     N_R   0.421470 0.559970 0.334770 -0.037082
N19   N     N_R   0.578530 0.440030 0.665230 -0.038677
N20   N     N_R   0.578530 0.559970 0.665230 -0.037528
N21   N     N_R   0.421470 0.440030 0.334770 -0.036804
N22   N     N_R   0.921470 0.059970 0.334770 -0.041465
N23   N     N_R   0.467030 0.559900 0.334790 -0.046068
N24   N     N_R   0.078530 0.940030 0.665230 -0.040901
N25   N     N_R   0.078530 0.059970 0.665230 -0.042193
N26   N     N_R   0.921470 0.940030 0.334770 -0.038153
N27   N     N_R   0.532970 0.440100 0.665210 -0.052241
N28   N     N_R   0.032970 0.059900 0.665210 -0.052261
N29   N     N_R   0.967030 0.940100 0.334790 -0.048843
N30   N     N_R   0.967030 0.059900 0.334790 -0.050495
N31   N     N_R   0.032970 0.940100 0.665210 -0.052442
N32   N     N_R   0.597900 0.559930 0.545530 -0.040517
Ni1   Ni    Ni4+2 0.483030 0.500000 0.604430 0.211979
Ni2   Ni    Ni4+2 0.516970 0.500000 0.395570 0.210440
Ni3   Ni    Ni4+2 0.983030 0.000000 0.604430 0.208578
Ni4   Ni    Ni4+2 0.016970 1.000000 0.395570 0.206118
Ni5   Ni    Ni4+2 0.587400 0.500000 0.604430 0.216117
Ni6   Ni    Ni4+2 0.412600 0.500000 0.395570 0.210088
Ni7   Ni    Ni4+2 0.087400 0.000000 0.604430 0.210374
Ni8   Ni    Ni4+2 0.912600 1.000000 0.395570 0.205900
O1    O     O_3   0.546532 0.351920 0.882112 -0.644489
O2    O     O_3   0.447224 0.620466 0.095699 -0.663575
O3    O     O_3   0.442138 0.402358 0.084246 -0.654046
O4    O     O_3   0.576676 0.595528 0.927257 -0.636955
O5    O     O_3   0.023896 0.799941 0.812587 -0.644620
O6    O     O_3   0.985783 0.216116 0.218909 -0.645932
O7    O     O_3   0.908976 0.939258 0.063004 -0.640155
O8    O     O_3   0.015300 0.208028 0.791450 -0.644877

loop_
_geom_bond_atom_site_label_1
_geom_bond_atom_site_label_2
_ccdc_geom_bond_type
C7    C29   A    
C160  H52   S    
C74   C83   A    
C136  C140  A    
C66   C85   S    
C110  H37   S    
C41   C67   A    
C49   C60   A    
C121  C140  A    
C122  C139  A    
C147  C164  A    
C105  H22   S    
N10   Ni1   S    
C98   O2    S    
C9    C182  A    
N29   Ni4   S    
C11   C15   A    
C113  C122  A    
C154  H46   S    
C91   H102  S    
C10   C20   A    
C45   N20   A    
C32   H132  S    
C3    C158  A    
C13   C130  A    
N16   Ni3   S    
C35   C115  A    
C117  C126  A    
C134  H114  S    
C47   C53   A    
C100  O3    S    
C194  N5    A    
C74   C123  A    
C153  C180  A    
C61   C189  A    
C148  C165  A    
C39   C65   A    
C5    C186  A    
C36   C62   A    
C38   N13   A    
C95   H107  S    
C37   C63   A    
C139  H119  S    
C140  H120  S    
N25   N28   A    
C68   C95   A    
C115  C123  A    
C193  H67   S    
C176  C185  A    
C194  H68   S    
C177  H35   S    
C16   C188  A    
N14   Ni4   S    
C129  C142  A    
C18   H56   S    
C132  C137  A    
C44   H83   S    
C131  H111  S    
C34   C61   A    
C148  C174  A    
C177  C186  A    
N11   Ni1   S    
C99   H7    S    
C149  C175  A    
C60   C151  S    
C75   H96   S    
C58   C153  S    
C152  C170  A    
C7    C188  A    
C43   C54   A    
C43   N18   A    
C170  O8    S    
N7    N16   A    
C135  H71   S    
C127  C143  A    
N12   N21   A    
C54   C145  S    
C62   C81   S    
C173  C182  A    
N22   N30   A    
C124  N23   A    
C191  N2    A    
C169  O5    S    
N22   Ni8   S    
N3    Ni6   S    
C114  H40   S    
C65   C194  A    
C21   C30   A    
C171  O7    S    
C168  N30   A    
N26   Ni8   S    
C182  C199  A    
C19   H57   S    
N24   N31   A    
C155  H47   S    
C61   C82   S    
C112  N12   A    
C159  H51   S    
N7    Ni8   S    
C80   C88   A    
C10   C16   A    
C44   C55   A    
C12   C185  A    
C159  C167  A    
C128  C190  A    
C84   C93   A    
C86   C95   A    
C14   C21   A    
C98   C99   S    
C94   H106  S    
C168  H104  S    
C98   H6    S    
C76   C85   A    
C109  H33   S    
C78   C87   A    
C128  H108  S    
C31   H131  S    
C24   C131  A    
C162  H54   S    
C48   N22   A    
C164  O1    S    
C112  H49   S    
C108  H30   S    
C60   C179  A    
C36   H74   S    
C69   C83   S    
C101  C118  A    
C70   H90   S    
C51   H89   S    
C97   H136  S    
C76   H97   S    
C154  C198  A    
C109  H32   S    
C146  N28   A    
C75   C84   A    
C151  C177  A    
C63   C192  A    
C12   C22   A    
C2    C129  A    
C2    C90   A    
N27   Ni1   S    
C68   C118  A    
C5    C27   A    
C189  N32   A    
C172  C181  A    
C6    C28   A    
N15   Ni3   S    
C107  H27   S    
C107  C108  S    
N8    N17   A    
C77   C127  A    
C89   H101  S    
N13   Ni2   S    
C145  C172  A    
C52   C148  S    
C64   C193  A    
C53   C149  S    
C191  H65   S    
C51   N26   A    
C137  H117  S    
C63   C80   S    
C34   H73   S    
C162  C171  A    
C134  C139  A    
C129  H109  S    
C21   H59   S    
C145  C163  A    
C45   C52   A    
C50   C56   A    
C189  H64   S    
C73   H94   S    
C197  H72   S    
C90   C120  A    
C104  H19   S    
C47   N21   A    
C42   H80   S    
N5    N14   A    
C106  H23   S    
C6    C161  A    
C5    C160  A    
C106  H25   S    
N8    Ni7   S    
C172  H2    S    
C19   C28   A    
C138  H118  S    
C87   C190  A    
C113  C117  A    
C30   C198  A    
C16   C23   A    
C116  C125  A    
C44   N19   A    
C29   H129  S    
C118  C127  A    
N2    Ni6   S    
C67   C196  A    
C195  H69   S    
C155  C199  A    
C48   C59   A    
C130  H110  S    
C193  N4    A    
C114  H42   S    
C119  C138  A    
C64   C78   S    
C109  O7    S    
C11   C184  A    
C58   C157  A    
C62   C191  A    
N20   Ni5   S    
N3    N11   A    
C100  H11   S    
C183  C200  A    
C151  C169  A    
C57   C94   A    
C143  H123  S    
C72   H92   S    
C105  H21   S    
C35   C132  A    
C126  C144  A    
C9    C12   A    
C135  N27   A    
C131  C144  A    
C20   C29   A    
C42   N17   A    
C175  C184  A    
C40   C66   A    
C173  H126  S    
C13   C101  A    
C25   C33   A    
C8    C181  A    
C72   C121  A    
C76   C126  A    
C133  H113  S    
C1    H1    S    
C31   C199  A    
C66   C195  A    
C65   C86   S    
C11   C19   A    
N28   Ni3   S    
C74   H95   S    
C99   H9    S    
C4    C159  A    
C3    C33   A    
C27   H127  S    
C157  H93   S    
C196  N7    A    
C180  C188  A    
C48   H86   S    
C102  H14   S    
C49   H87   S    
C107  O6    S    
N4    Ni5   S    
C96   H135  S    
C79   C119  A    
C160  C169  A    
C196  H70   S    
C88   H100  S    
C56   C152  S    
C128  C141  A    
C38   C64   A    
C72   C81   A    
C146  H82   S    
N24   Ni7   S    
C81   C89   A    
C35   C92   A    
C40   H78   S    
C133  C138  A    
C45   H84   S    
C141  H121  S    
C3    C184  A    
C10   C183  A    
C97   H3    S    
C110  H36   S    
N18   Ni6   S    
C111  H38   S    
C149  C166  A    
C156  H48   S    
C26   H125  S    
C6    C187  A    
C101  C121  A    
C75   C125  A    
C4    C185  A    
C41   H79   S    
N19   Ni5   S    
C178  H45   S    
C51   C58   A    
C90   C115  A    
C104  H18   S    
C178  C187  A    
C92   H103  S    
C57   C134  A    
C17   C26   A    
N30   Ni4   S    
C73   C82   A    
C158  C166  A    
C57   C117  A    
C59   C150  S    
C54   C124  A    
C50   H88   S    
C158  H50   S    
C174  C183  A    
C50   N25   A    
C4    C26   A    
C147  C173  A    
C192  N3    A    
C165  O4    S    
C105  C106  S    
C96   H134  S    
C46   C116  A    
C99   H8    S    
C23   C32   A    
C32   C200  A    
C109  C110  S    
C46   C133  A    
C102  H12   S    
C156  C165  A    
C25   H63   S    
C150  C167  A    
C123  C142  A    
C100  H10   S    
C111  C114  S    
N4    N13   A    
C56   C146  A    
C1    C52   A    
C8    C18   A    
C15   C25   A    
N6    N15   A    
C82   C91   A    
C124  H60   S    
C73   C122  A    
C103  C104  S    
C195  N6    A    
C120  C137  A    
C40   N15   A    
C59   C168  A    
C110  H34   S    
C20   H58   S    
C77   H98   S    
N26   N29   A    
C150  C176  A    
C39   N14   A    
C70   C78   A    
C161  H53   S    
C136  H116  S    
C83   C92   A    
C46   C93   A    
N9    N32   A    
C71   C120  A    
N21   Ni6   S    
C175  H13   S    
N32   Ni5   S    
C14   C186  A    
C22   H61   S    
N18   N23   A    
N6    Ni8   S    
C36   N10   A    
N5    Ni7   S    
C104  H20   S    
C79   C190  A    
C106  H26   S    
C98   H5    S    
C2    C88   A    
C105  O5    S    
C34   N9    A    
C24   C113  A    
C43   H81   S    
C79   C116  A    
C69   C197  A    
C33   H133  S    
C156  C200  A    
C71   H91   S    
C181  C198  A    
C157  N29   A    
C71   C80   A    
C108  H29   S    
C180  H44   S    
C7    C162  A    
C22   C31   A    
C154  C163  A    
C68   C136  A    
N23   Ni2   S    
C174  H24   S    
C47   H85   S    
C125  C141  A    
C111  O8    S    
C167  O6    S    
C37   N11   A    
C103  H16   S    
C23   H62   S    
C15   C187  A    
C42   C69   A    
C111  H39   S    
C144  H124  S    
C85   C94   A    
C39   H77   S    
C55   C147  S    
C166  O3    S    
C70   C119  A    
C96   C97   S    
C153  C171  A    
C49   N24   A    
C100  C102  S    
C192  H66   S    
C132  H112  S    
N17   Ni4   S    
C130  C143  A    
C96   O1    S    
C103  H17   S    
C161  C170  A    
C53   C112  A    
C9    C17   A    
C77   C86   A    
C176  H43   S    
C30   H130  S    
C41   N16   A    
C1    N1    A    
C24   C91   A    
C93   H105  S    
N9    Ni2   S    
C17   H55   S    
C8    C14   A    
C13   C89   A    
C18   C27   A    
N31   Ni3   S    
C107  H28   S    
N1    N20   A    
C155  C164  A    
N19   N27   A    
N2    N10   A    
C87   H99   S    
C142  H122  S    
C37   H75   S    
C38   H76   S    
C28   H128  S    
C197  N8    A    
N12   Ni2   S    
C55   C135  A    
C103  O4    S    
C152  C178  A    
C179  H115  S    
C102  H15   S    
C67   C84   S    
C114  H41   S    
N1    Ni1   S    
N25   Ni7   S    
C179  N31   A    
C97   H4    S    
C163  O2    S    
C108  H31   S    
