data_mof_unit_4013.cif
_audit_creation_date              2013-03-05T15:50:26-0500
_audit_creation_method            fapswitch 2.2
_symmetry_space_group_name_H-M    P1
_symmetry_Int_Tables_number       1
_space_group_crystal_system       triclinic
_cell_length_a                    18.40831
_cell_length_b                    25.95662
_cell_length_c                    18.25386
_cell_angle_alpha                 89.421462
_cell_angle_beta                  90.048272
_cell_angle_gamma                 89.399774
_cell_volume                      8721.08676328

loop_
_atom_site_label
_atom_site_type_symbol
_atom_site_description
_atom_site_fract_x
_atom_site_fract_y
_atom_site_fract_z
_atom_type_partial_charge
Zn1   Zn    Zn3+2 0.249990 0.293780 0.913250 1.140655
Zn2   Zn    Zn3+2 0.249990 0.706220 0.086750 1.097433
Zn3   Zn    Zn3+2 0.249990 0.706220 0.913250 1.112619
Zn4   Zn    Zn3+2 0.249990 0.293780 0.086750 1.110748
Zn5   Zn    Zn3+2 0.749990 0.793780 0.413250 1.162073
Zn6   Zn    Zn3+2 0.749990 0.206220 0.586750 1.086595
Zn7   Zn    Zn3+2 0.749990 0.206220 0.413250 1.163200
Zn8   Zn    Zn3+2 0.749990 0.793780 0.586750 1.082352
Zn9   Zn    Zn3+2 0.336760 0.206240 0.000000 1.061580
Zn10  Zn    Zn3+2 0.336760 0.793760 0.000000 1.041459
Zn11  Zn    Zn3+2 0.836760 0.706240 0.500000 1.060238
Zn12  Zn    Zn3+2 0.836760 0.293760 0.500000 1.025657
Zn13  Zn    Zn3+2 0.163250 0.206230 0.000000 0.996097
Zn14  Zn    Zn3+2 0.163250 0.793770 0.000000 0.983888
Zn15  Zn    Zn3+2 0.663250 0.706230 0.500000 1.009055
Zn16  Zn    Zn3+2 0.663250 0.293770 0.500000 1.008571
O1    O     O_3   0.249990 0.250010 0.000000 -0.529756
O2    O     O_3   0.249990 0.749990 0.000000 -0.529676
O3    O     O_3   0.749990 0.750010 0.500000 -0.532196
O4    O     O_3   0.749990 0.249990 0.500000 -0.538055
O5    O     O_R   0.335430 0.280650 0.146160 -0.600128
O6    O     O_R   0.335430 0.719350 0.853840 -0.601065
O7    O     O_R   0.335430 0.719350 0.146160 -0.590644
O8    O     O_R   0.335430 0.280650 0.853840 -0.599078
O9    O     O_R   0.835430 0.780650 0.646160 -0.608781
O10   O     O_R   0.835430 0.219350 0.353840 -0.569280
O11   O     O_R   0.835430 0.219350 0.646160 -0.604568
O12   O     O_R   0.835430 0.780650 0.353840 -0.601748
O13   O     O_R   0.164550 0.280640 0.853840 -0.572715
O14   O     O_R   0.164550 0.719360 0.146160 -0.625914
O15   O     O_R   0.164550 0.719360 0.853840 -0.562844
O16   O     O_R   0.164550 0.280640 0.146160 -0.606403
O17   O     O_R   0.664550 0.780640 0.353840 -0.594021
O18   O     O_R   0.664550 0.219360 0.646160 -0.586765
O19   O     O_R   0.664550 0.219360 0.353840 -0.550241
O20   O     O_R   0.664550 0.780640 0.646160 -0.617270
O21   O     O_R   0.396160 0.219380 0.914560 -0.597506
O22   O     O_R   0.396160 0.780620 0.085440 -0.646363
O23   O     O_R   0.396160 0.780620 0.914560 -0.584852
O24   O     O_R   0.396160 0.219380 0.085440 -0.641724
O25   O     O_R   0.896160 0.719380 0.414560 -0.631235
O26   O     O_R   0.896160 0.280620 0.585440 -0.643564
O27   O     O_R   0.896160 0.280620 0.414560 -0.618026
O28   O     O_R   0.896160 0.719380 0.585440 -0.635988
O29   O     O_R   0.103840 0.219370 0.085450 -0.635460
O30   O     O_R   0.103840 0.780630 0.914550 -0.664250
O31   O     O_R   0.103840 0.780630 0.085450 -0.660272
O32   O     O_R   0.103840 0.219370 0.914550 -0.653860
O33   O     O_R   0.603840 0.719370 0.585450 -0.639048
O34   O     O_R   0.603840 0.280630 0.414550 -0.657847
O35   O     O_R   0.603840 0.280630 0.585450 -0.651948
O36   O     O_R   0.603840 0.719370 0.414550 -0.631948
O37   O     O_R   0.310730 0.133160 0.000000 -0.609226
O38   O     O_R   0.310730 0.866840 0.000000 -0.605839
O39   O     O_R   0.810730 0.633160 0.500000 -0.616195
O40   O     O_R   0.810730 0.366840 0.500000 -0.605168
O41   O     O_R   0.249970 0.366860 0.060720 -0.549384
O42   O     O_R   0.249970 0.633140 0.939280 -0.609967
O43   O     O_R   0.249970 0.633140 0.060720 -0.563265
O44   O     O_R   0.249970 0.366860 0.939280 -0.609945
O45   O     O_R   0.749970 0.866860 0.560720 -0.571140
O46   O     O_R   0.749970 0.133140 0.439280 -0.571949
O47   O     O_R   0.749970 0.133140 0.560720 -0.585910
O48   O     O_R   0.749970 0.866860 0.439280 -0.587069
O49   O     O_R   0.189290 0.133150 0.000000 -0.661237
O50   O     O_R   0.189290 0.866850 0.000000 -0.670180
O51   O     O_R   0.689290 0.633150 0.500000 -0.624107
O52   O     O_R   0.689290 0.366850 0.500000 -0.629025
C1    C     C_R   0.390879 0.250874 0.138676 0.825715
C2    C     C_R   0.388226 0.750964 0.858732 0.860425
C3    C     C_R   0.387648 0.750647 0.142618 0.788907
C4    C     C_R   0.388907 0.248973 0.858769 0.895467
C5    C     C_R   0.890648 0.750646 0.638887 0.847572
C6    C     C_R   0.887239 0.251613 0.357647 0.842146
C7    C     C_R   0.889534 0.248654 0.640601 0.758460
C8    C     C_R   0.890204 0.750235 0.360412 0.937301
C9    C     C_R   0.110011 0.251055 0.860192 0.813748
C10   C     C_R   0.110331 0.750275 0.140846 0.835784
C11   C     C_R   0.109996 0.750089 0.860383 0.814257
C12   C     C_R   0.110981 0.249844 0.140282 0.764135
C13   C     C_R   0.610030 0.751084 0.360055 0.816771
C14   C     C_R   0.610007 0.249541 0.639473 0.774525
C15   C     C_R   0.610171 0.250459 0.360165 0.828209
C16   C     C_R   0.610732 0.749949 0.640087 0.750383
C17   C     C_R   0.250262 0.109350 0.989596 0.847075
C18   C     C_R   0.249939 0.890782 0.989529 0.852858
C19   C     C_R   0.750335 0.609361 0.499744 0.876255
C20   C     C_R   0.749804 0.390687 0.499224 0.881012
C21   C     C_R   0.247550 0.391267 0.000649 1.012520
C22   C     C_R   0.246752 0.608745 0.000513 0.956951
C23   C     C_R   0.747872 0.891410 0.499405 1.015427
C24   C     C_R   0.749972 0.108809 0.499537 0.980887
C25   C     C_3   0.224458 0.468715 0.088112 0.256175
C26   C     C_3   0.171176 0.531542 0.956049 0.278787
C27   C     C_3   0.240819 0.530324 0.088974 0.303917
C28   C     C_3   0.177158 0.469349 0.948298 0.328342
C29   C     C_3   0.665502 0.970805 0.521192 0.279655
C30   C     C_3   0.757031 0.031270 0.411581 0.289049
C31   C     C_3   0.669681 0.032616 0.533131 0.328807
C32   C     C_3   0.775499 0.970118 0.416576 0.289676
H1    H     H_    0.119863 0.907056 0.914445 0.170901
H2    H     H_    0.118537 0.095719 0.916090 0.177868
H3    H     H_    0.752419 0.403776 0.634928 0.097728
H4    H     H_    0.754302 0.594045 0.635428 0.093216
H5    H     H_    0.358566 0.462571 0.018331 0.284094
H6    H     H_    0.313321 0.536791 0.906925 0.278138
H7    H     H_    0.361798 0.545791 0.983749 0.234642
H8    H     H_    0.335778 0.450657 0.929246 0.248048
H9    H     H_    0.788209 0.960616 0.610492 0.292809
H10   H     H_    0.862714 0.036019 0.518034 0.257714
H11   H     H_    0.814134 0.047450 0.597009 0.290774
H12   H     H_    0.856138 0.952700 0.548429 0.273150
C33   C     C_3   0.314681 0.470258 0.978712 -0.417951
C34   C     C_3   0.310414 0.528330 0.965841 -0.429994
C35   C     C_3   0.801586 0.970399 0.553384 -0.361255
C36   C     C_3   0.809187 0.028801 0.543094 -0.464771
C37   C     C_3   0.239648 0.448806 0.004456 -0.322271
C38   C     C_3   0.240735 0.551070 0.003021 -0.273934
C39   C     C_3   0.745644 0.949361 0.496721 -0.323704
C40   C     C_3   0.744857 0.051486 0.495826 -0.309351
H13   H     H_    0.088466 0.079141 0.761496 0.213480
H14   H     H_    0.908792 0.876544 0.087194 0.204858
H15   H     H_    0.131027 0.908136 0.721587 0.226842
H16   H     H_    0.905726 0.345916 0.043825 0.208964
H17   H     H_    0.541990 0.578033 0.312647 0.208302
H18   H     H_    0.394835 0.180679 0.528856 0.202508
H19   H     H_    0.589090 0.423362 0.257413 0.201982
H20   H     H_    0.428883 0.876396 0.569097 0.226422
C41   C     C_R   0.033205 0.345750 0.816819 -0.085096
C42   C     C_R   0.118973 0.681658 0.275413 -0.030942
C43   C     C_R   0.007737 0.668151 0.850624 -0.093561
C44   C     C_R   0.136269 0.206734 0.283759 -0.158138
C45   C     C_R   0.547532 0.849008 0.305538 -0.060726
C46   C     C_R   0.641783 0.277991 0.785662 -0.130001
C47   C     C_R   0.520024 0.162612 0.339047 -0.097070
C48   C     C_R   0.623160 0.686682 0.769140 -0.144138
C49   C     C_R   0.996507 0.390902 0.796004 -0.010645
C50   C     C_R   0.137215 0.664954 0.345870 -0.039634
C51   C     C_R   0.958524 0.627864 0.846968 -0.014882
C52   C     C_R   0.149081 0.185417 0.352957 -0.087522
C53   C     C_R   0.518397 0.895296 0.278923 -0.005172
C54   C     C_R   0.660155 0.287967 0.857863 -0.118575
C55   C     C_R   0.477501 0.119213 0.329134 -0.025596
C56   C     C_R   0.630099 0.655818 0.831667 -0.117735
C57   C     C_R   0.462960 0.895020 0.227475 -0.161029
C58   C     C_R   0.608278 0.283150 0.912217 -0.021599
C59   C     C_R   0.424924 0.119119 0.274645 -0.154863
C60   C     C_R   0.576064 0.656414 0.884762 -0.088243
C61   C     C_R   0.940497 0.389420 0.745458 -0.174230
C62   C     C_R   0.100899 0.685305 0.405502 -0.137948
C63   C     C_R   0.905488 0.628068 0.792879 -0.154051
C64   C     C_R   0.094265 0.185402 0.405186 -0.053517
C65   C     C_R   0.435758 0.848443 0.203023 -0.121479
C66   C     C_R   0.537178 0.270170 0.894140 -0.108663
C67   C     C_R   0.414772 0.162400 0.229907 -0.156550
C68   C     C_R   0.514649 0.687667 0.875410 -0.138906
C69   C     C_R   0.921181 0.342813 0.714869 -0.136257
C70   C     C_R   0.040774 0.717241 0.393941 -0.087994
C71   C     C_R   0.901510 0.668530 0.742282 -0.151367
C72   C     C_R   0.026328 0.206603 0.388428 -0.124479
C73   C     C_R   0.465657 0.800826 0.227829 0.092507
C74   C     C_R   0.516681 0.259549 0.820913 0.036461
C75   C     C_R   0.458375 0.206845 0.238039 0.089545
C76   C     C_R   0.506070 0.719305 0.812107 0.065431
C77   C     C_R   0.959707 0.296726 0.732616 0.096936
C78   C     C_R   0.016724 0.729727 0.321855 0.062964
C79   C     C_R   0.951519 0.709819 0.744487 0.080895
C80   C     C_R   0.011950 0.228971 0.318566 0.078179
C81   C     C_R   0.016620 0.298135 0.784472 0.019139
C82   C     C_R   0.064056 0.719950 0.263569 0.039776
C83   C     C_R   0.005179 0.709499 0.799571 0.038807
C84   C     C_R   0.067895 0.229017 0.265681 0.079084
C85   C     C_R   0.523334 0.801029 0.279169 0.031795
C86   C     C_R   0.570739 0.261871 0.766609 0.080307
C87   C     C_R   0.511712 0.206774 0.293453 0.037865
C88   C     C_R   0.561381 0.718928 0.758565 0.084197
C89   C     C_R   0.434886 0.753266 0.207796 -0.097072
C90   C     C_R   0.443990 0.247097 0.801209 -0.117702
C91   C     C_R   0.448553 0.251344 0.193235 -0.114219
C92   C     C_R   0.442988 0.750220 0.800926 -0.104918
C93   C     C_R   0.939014 0.248954 0.703556 -0.093806
C94   C     C_R   0.946453 0.749616 0.304792 -0.116357
C95   C     C_R   0.948393 0.751179 0.693297 -0.114781
C96   C     C_R   0.942406 0.249338 0.299985 -0.104660
C97   C     C_R   0.454213 0.707664 0.248368 -0.078741
C98   C     C_R   0.426442 0.231109 0.728174 -0.069675
C99   C     C_R   0.490246 0.296689 0.204379 -0.092382
C100  C     C_R   0.433799 0.780407 0.735569 -0.070326
C101  C     C_R   0.969158 0.202101 0.732949 -0.070895
C102  C     C_R   0.931568 0.769741 0.233884 -0.051970
C103  C     C_R   0.999048 0.792557 0.695883 -0.083046
C104  C     C_R   0.927545 0.268319 0.227354 -0.077874
C105  C     C_R   0.035256 0.205016 0.770879 0.052184
C106  C     C_R   0.991099 0.781884 0.190158 0.044910
C107  C     C_R   0.049071 0.793282 0.754835 0.050567
C108  C     C_R   0.986973 0.274431 0.179052 0.045615
C109  C     C_R   0.522664 0.706595 0.281604 0.027119
C110  C     C_R   0.483267 0.230823 0.675548 0.052706
C111  C     C_R   0.539270 0.297298 0.264047 0.062040
C112  C     C_R   0.493166 0.783597 0.686371 0.034509
C113  C     C_R   0.054987 0.252010 0.802550 -0.088613
C114  C     C_R   0.055078 0.750695 0.198514 -0.130592
C115  C     C_R   0.053639 0.751027 0.804190 -0.096042
C116  C     C_R   0.054697 0.251512 0.196260 -0.075235
C117  C     C_R   0.553791 0.753228 0.303432 -0.085929
C118  C     C_R   0.553340 0.248063 0.694605 -0.080313
C119  C     C_R   0.553092 0.251439 0.304754 -0.096253
C120  C     C_R   0.554475 0.751087 0.696239 -0.074681
C121  C     C_R   0.408692 0.663948 0.261252 0.255851
C122  C     C_R   0.355631 0.214023 0.704990 0.247336
C123  C     C_R   0.486199 0.341204 0.157154 0.276195
C124  C     C_R   0.368135 0.807966 0.717082 0.259516
C125  C     C_R   0.936714 0.152391 0.727902 0.184776
C126  C     C_R   0.860463 0.781099 0.206600 0.225466
C127  C     C_R   0.002413 0.833171 0.641853 0.217675
C128  C     C_R   0.856544 0.282329 0.200434 0.219952
C129  C     C_R   0.440601 0.616779 0.286405 0.275200
C130  C     C_R   0.344793 0.195514 0.633112 0.303249
C131  C     C_R   0.518897 0.388059 0.178300 0.329209
C132  C     C_R   0.366936 0.843124 0.657360 0.283862
C133  C     C_R   0.981005 0.107721 0.735789 0.246341
C134  C     C_R   0.851928 0.821506 0.154564 0.286803
C135  C     C_R   0.050857 0.874817 0.650509 0.287869
C136  C     C_R   0.849110 0.311508 0.134812 0.290882
C137  C     C_R   0.053795 0.112883 0.755424 -0.227426
C138  C     C_R   0.913840 0.844077 0.124668 -0.223778
C139  C     C_R   0.094324 0.876425 0.712956 -0.150684
C140  C     C_R   0.910638 0.323725 0.094194 -0.213717
C141  C     C_R   0.515790 0.613862 0.296137 -0.222241
C142  C     C_R   0.402230 0.195091 0.583822 -0.218270
C143  C     C_R   0.561798 0.388512 0.241148 -0.221807
C144  C     C_R   0.429087 0.849586 0.614960 -0.177716
C145  C     C_R   0.079349 0.160423 0.777523 -0.142202
C146  C     C_R   0.982481 0.823802 0.140444 -0.172844
C147  C     C_R   0.094535 0.836244 0.763282 -0.164629
C148  C     C_R   0.977908 0.303648 0.113958 -0.148084
C149  C     C_R   0.556043 0.658615 0.296610 -0.154290
C150  C     C_R   0.469894 0.212354 0.604270 -0.157864
C151  C     C_R   0.574905 0.343677 0.280843 -0.125795
C152  C     C_R   0.490281 0.819274 0.627516 -0.159378
H21   H     H_    0.074431 0.348554 0.858231 0.211086
H22   H     H_    0.146602 0.661772 0.232186 0.242921
H23   H     H_    0.047200 0.667029 0.894315 0.174323
H24   H     H_    0.180552 0.205627 0.244848 0.120549
H25   H     H_    0.587773 0.851722 0.347948 0.210781
H26   H     H_    0.684290 0.282746 0.745393 0.129733
H27   H     H_    0.558245 0.161563 0.383858 0.188539
H28   H     H_    0.666779 0.685104 0.729464 0.104933
H29   H     H_    0.010914 0.427373 0.819075 0.231674
H30   H     H_    0.180501 0.636925 0.354147 0.219834
H31   H     H_    0.961228 0.596564 0.886548 0.205491
H32   H     H_    0.201707 0.168702 0.366006 0.170221
H33   H     H_    0.537956 0.931598 0.299251 0.227397
H34   H     H_    0.714943 0.299152 0.871696 0.167847
H35   H     H_    0.484748 0.085828 0.364536 0.210525
H36   H     H_    0.677673 0.631416 0.838971 0.138612
H37   H     H_    0.439311 0.931039 0.208178 0.154619
H38   H     H_    0.623300 0.289930 0.968572 0.223056
H39   H     H_    0.391258 0.085590 0.267483 0.153330
H40   H     H_    0.581584 0.632408 0.933330 0.161108
H41   H     H_    0.911066 0.424376 0.730841 0.159731
H42   H     H_    0.117280 0.674658 0.460630 0.180375
H43   H     H_    0.867039 0.596883 0.790287 0.137979
H44   H     H_    0.104199 0.168509 0.458783 0.189847
H45   H     H_    0.388762 0.850553 0.167622 0.148929
H46   H     H_    0.499201 0.267975 0.938650 0.193953
H47   H     H_    0.371799 0.160485 0.189694 0.128558
H48   H     H_    0.473908 0.686341 0.918064 0.114904
H49   H     H_    0.874296 0.343394 0.679195 0.132939
H50   H     H_    0.014466 0.731830 0.442183 0.212036
H51   H     H_    0.858674 0.666933 0.701792 0.108835
H52   H     H_    0.985187 0.204427 0.430571 0.131794
H53   H     H_    0.133673 0.161996 0.799980 0.206432
H54   H     H_    0.027705 0.843930 0.116590 0.203034
H55   H     H_    0.131361 0.839471 0.809003 0.190195
H56   H     H_    0.023066 0.311799 0.077839 0.184416
H57   H     H_    0.612452 0.655837 0.312442 0.219431
H58   H     H_    0.512092 0.210006 0.563203 0.172936
H59   H     H_    0.613014 0.346619 0.325397 0.214771
H60   H     H_    0.535597 0.824403 0.590492 0.177287
H61   H     H_    0.008989 0.049582 0.892558 0.185380
H62   H     H_    0.009733 0.954787 0.890797 0.177700
H63   H     H_    0.755687 0.545465 0.749525 0.127878
H64   H     H_    0.755200 0.450356 0.749258 0.145306
C153  C     C_R   0.382503 0.052761 0.929441 0.435526
C154  C     C_R   0.383075 0.946682 0.930220 0.438689
C155  C     C_R   0.748801 0.555310 0.358401 0.357857
C156  C     C_R   0.752075 0.447488 0.358131 0.357463
C157  C     C_R   0.448368 0.026040 0.929617 -0.213365
C158  C     C_R   0.448665 0.972831 0.930199 -0.215062
C159  C     C_R   0.745774 0.528392 0.293107 -0.181086
C160  C     C_R   0.747690 0.475416 0.292954 -0.202807
C161  C     C_R   0.317300 0.972436 0.950240 -0.061599
C162  C     C_R   0.317205 0.027404 0.950073 -0.066420
C163  C     C_R   0.750644 0.473223 0.427529 -0.046568
C164  C     C_R   0.750015 0.528270 0.427672 -0.053615
C165  C     C_R   0.250671 0.945949 0.963074 -0.147481
C166  C     C_R   0.250786 0.054540 0.963164 -0.147998
C167  C     C_R   0.750138 0.446356 0.496214 -0.113734
C168  C     C_R   0.751099 0.553842 0.496503 -0.112990
C169  C     C_R   0.185170 0.973358 0.947041 0.091031
C170  C     C_R   0.185076 0.028195 0.947326 0.095317
C171  C     C_R   0.751570 0.472478 0.563699 0.073388
C172  C     C_R   0.752238 0.526561 0.563842 0.071215
C173  C     C_R   0.121178 0.947809 0.924799 -0.145932
C174  C     C_R   0.120579 0.054771 0.925913 -0.143843
C175  C     C_R   0.752689 0.445427 0.631804 -0.158904
C176  C     C_R   0.753791 0.552446 0.632090 -0.148005
C177  C     C_R   0.057844 0.975096 0.907908 -0.102875
C178  C     C_R   0.057461 0.028421 0.908811 -0.113151
C179  C     C_R   0.754299 0.471643 0.697947 -0.125186
C180  C     C_R   0.754723 0.525085 0.698094 -0.116871
H65   H     H_    0.498268 0.045853 0.916467 0.219192
H66   H     H_    0.498835 0.952650 0.917499 0.220066
H67   H     H_    0.743980 0.548866 0.241092 0.219436
H68   H     H_    0.747659 0.455786 0.240825 0.222502
N1    N     N_R   0.271778 0.442160 0.143523 0.265463
O53   O     O_R   0.245851 0.430814 0.208052 -0.232787
O54   O     O_R   0.340159 0.432244 0.132155 -0.326026
N2    N     N_R   0.165048 0.553297 0.880054 0.249748
O55   O     O_R   0.103771 0.548216 0.845260 -0.315591
O56   O     O_R   0.219357 0.571384 0.842694 -0.315682
N3    N     N_R   0.314100 0.539759 0.123042 0.243242
O57   O     O_R   0.326540 0.524776 0.190154 -0.193168
O58   O     O_R   0.357335 0.575330 0.098636 -0.402743
N4    N     N_R   0.197335 0.454847 0.871432 0.252221
O59   O     O_R   0.155903 0.424629 0.833805 -0.331964
O60   O     O_R   0.254067 0.472761 0.837847 -0.348503
N5    N     N_R   0.637281 0.947962 0.590903 0.233501
O61   O     O_R   0.569070 0.954966 0.607306 -0.266528
O62   O     O_R   0.677682 0.924475 0.639424 -0.325711
N6    N     N_R   0.817598 0.059002 0.374333 0.259910
O63   O     O_R   0.819778 0.061483 0.303038 -0.222055
O64   O     O_R   0.870209 0.080664 0.410040 -0.406706
N7    N     N_R   0.670291 0.046037 0.613149 0.251299
O65   O     O_R   0.627803 0.082470 0.637631 -0.251860
O66   O     O_R   0.710303 0.022023 0.661512 -0.305105
N8    N     N_R   0.856015 0.958972 0.413231 0.209680
O67   O     O_R   0.897406 0.981910 0.365566 -0.242263
O68   O     O_R   0.879861 0.913917 0.434758 -0.324423
N9    N     N_R   0.331224 0.670056 0.264734 0.235516
O69   O     O_R   0.302615 0.710021 0.296654 -0.399425
O70   O     O_R   0.289148 0.637370 0.232381 -0.289106
N10   N     N_R   0.292686 0.218641 0.750329 0.206093
O71   O     O_R   0.277790 0.182380 0.797459 -0.387257
O72   O     O_R   0.241713 0.251134 0.731064 -0.346132
N11   N     N_R   0.464667 0.335912 0.082465 0.193519
O73   O     O_R   0.515523 0.330026 0.034096 -0.418364
O74   O     O_R   0.401161 0.352093 0.060773 -0.379339
N12   N     N_R   0.301071 0.797501 0.753608 0.204135
O75   O     O_R   0.263096 0.758154 0.733205 -0.334192
O76   O     O_R   0.270304 0.832951 0.793067 -0.399764
N13   N     N_R   0.859528 0.147060 0.735200 0.258774
O77   O     O_R   0.824327 0.174184 0.783440 -0.340177
O78   O     O_R   0.824182 0.114644 0.695150 -0.300989
N14   N     N_R   0.802494 0.745197 0.220428 0.215762
O79   O     O_R   0.818414 0.696928 0.232650 -0.345235
O80   O     O_R   0.734653 0.758007 0.210947 -0.318110
N15   N     N_R   0.957754 0.832618 0.577964 0.210671
O81   O     O_R   0.978328 0.806741 0.520907 -0.398353
O82   O     O_R   0.903045 0.864365 0.572713 -0.376331
N16   N     N_R   0.792464 0.260112 0.230999 0.228303
O83   O     O_R   0.779469 0.211752 0.218834 -0.286247
O84   O     O_R   0.739678 0.289677 0.253170 -0.345979
N17   N     N_R   0.951501 0.056905 0.731237 0.212168
O85   O     O_R   0.898916 0.043286 0.774655 -0.314304
O86   O     O_R   0.986829 0.021393 0.695818 -0.339436
N18   N     N_R   0.781821 0.840885 0.132913 0.246712
O87   O     O_R   0.769172 0.852000 0.064384 -0.341296
O88   O     O_R   0.736927 0.857782 0.182410 -0.258013
N19   N     N_R   0.057466 0.915372 0.596109 0.250912
O89   O     O_R   0.088376 0.958550 0.612932 -0.292889
O90   O     O_R   0.041274 0.907573 0.527756 -0.247665
N20   N     N_R   0.779043 0.326788 0.106647 0.230657
O91   O     O_R   0.770844 0.371433 0.074451 -0.367454
O92   O     O_R   0.726875 0.293513 0.102241 -0.318787
N21   N     N_R   0.397730 0.573512 0.309653 0.270081
O93   O     O_R   0.425671 0.527235 0.308077 -0.290600
O94   O     O_R   0.338077 0.580785 0.346558 -0.295850
N22   N     N_R   0.275195 0.176905 0.609398 0.243222
O95   O     O_R   0.256391 0.180736 0.540783 -0.395855
O96   O     O_R   0.233921 0.150972 0.653977 -0.298301
N23   N     N_R   0.511147 0.435195 0.136029 0.255449
O97   O     O_R   0.520274 0.479479 0.167431 -0.333011
O98   O     O_R   0.498548 0.434794 0.065927 -0.299728
N24   N     N_R   0.302061 0.871327 0.637602 0.237689
O99   O     O_R   0.306657 0.917893 0.611034 -0.304660
O100  O     O_R   0.239731 0.848247 0.635513 -0.323349
Cl1   Cl    Cl    0.382296 0.108459 0.873688 -0.506853
Cl2   Cl    Cl    0.384106 0.891611 0.874962 -0.527144
Cl3   Cl    Cl    0.753351 0.622609 0.344677 -0.590282
Cl4   Cl    Cl    0.763867 0.380880 0.344275 -0.614212
N25   N     N_R   0.148578 0.454498 0.109932 0.236042
O101  O     O_R   0.112383 0.480477 0.158511 -0.225730
O102  O     O_R   0.130439 0.406315 0.106553 -0.315883
N26   N     N_R   0.104725 0.550759 0.993493 0.228196
O103  O     O_R   0.066520 0.523560 0.039080 -0.258514
O104  O     O_R   0.084253 0.598353 0.982311 -0.404806
N27   N     N_R   0.188422 0.557653 0.138186 0.256048
O105  O     O_R   0.141377 0.591932 0.115670 -0.327497
O106  O     O_R   0.193561 0.550851 0.208868 -0.240830
N28   N     N_R   0.105653 0.444786 0.961809 0.236119
O107  O     O_R   0.102719 0.395268 0.972870 -0.430836
O108  O     O_R   0.048126 0.465690 0.931883 -0.333537
N29   N     N_R   0.612612 0.954510 0.464712 0.229906
O109  O     O_R   0.586282 0.984970 0.414108 -0.328098
O110  O     O_R   0.588870 0.907401 0.467023 -0.428038
N30   N     N_R   0.691539 0.041998 0.364690 0.238300
O111  O     O_R   0.687306 0.022591 0.299353 -0.239974
O112  O     O_R   0.654569 0.084331 0.372515 -0.337900
N31   N     N_R   0.603735 0.059481 0.503805 0.244668
O113  O     O_R   0.604035 0.109419 0.496243 -0.425263
O114  O     O_R   0.540627 0.039877 0.519265 -0.265718
N32   N     N_R   0.745561 0.943167 0.351693 0.264600
O115  O     O_R   0.680397 0.924778 0.349323 -0.336872
O116  O     O_R   0.784666 0.939428 0.292471 -0.233007

loop_
_geom_bond_atom_site_label_1
_geom_bond_atom_site_label_2
_geom_bond_distance
_ccdc_geom_bond_type
C50   H30   1.082825 S    
C25   N1    1.492922 S    
C110  C118  1.414090 A    
C54   C58   1.383313 A    
C159  C160  1.375197 A    
C87   C119  1.410647 A    
C169  C170  1.423428 A    
C43   C83   1.414627 A    
O26   C7    1.304836 A    
C174  C178  1.391252 A    
C25   C37   1.640333 S    
N26   O104  1.301862 A    
C162  C166  1.426187 A    
O30   C11   1.277910 A    
H15   C139  1.083010 S    
C133  C137  1.394910 A    
H13   C137  1.083006 S    
C159  H67   1.083707 S    
C166  C170  1.426574 A    
Zn12  O26   1.929485 S    
C126  C134  1.415329 A    
H16   C140  1.083222 S    
C109  C149  1.407254 A    
C152  H60   1.082506 S    
N4    O59   1.300460 A    
C108  C116  1.409562 A    
C59   C67   1.393092 A    
C52   C64   1.388802 A    
C53   C57   1.386388 A    
C112  C120  1.412415 A    
C28   N4    1.502312 S    
C131  N23   1.445607 S    
C60   H40   1.082568 S    
O11   C7    1.263056 A    
C136  C140  1.391875 A    
C61   H41   1.082839 S    
N18   O87   1.301178 A    
N13   O78   1.299557 A    
O34   C15   1.275291 A    
C77   C81   1.412365 A    
C72   H52   1.081460 S    
C57   H37   1.082703 S    
N3    O57   1.300960 A    
C32   N32   1.489808 S    
H61   C178  1.082543 S    
Zn1   O44   1.960158 S    
N7    O66   1.299451 A    
C29   N29   1.485078 S    
H63   C180  1.082475 S    
C79   C83   1.408842 A    
C124  C132  1.414641 A    
Zn5   O48   1.960158 S    
C65   C73   1.417604 A    
C148  H56   1.082718 S    
H8    C33   1.109371 S    
C149  H57   1.079105 S    
C128  C136  1.416495 A    
Zn7   O46   1.950858 S    
O16   C12   1.281015 A    
C171  C172  1.404026 A    
C58   C66   1.395066 A    
C169  C173  1.418896 A    
Zn16  O4    1.950104 S    
Zn12  O4    1.969805 S    
Zn1   O13   1.944720 S    
C20   C167  1.445555 S    
C26   C28   1.624526 S    
Zn4   O16   1.942356 S    
C129  N21   1.440051 S    
N30   O112  1.295607 A    
C97   C121  1.435254 A    
C141  C149  1.384473 A    
N23   O97   1.302016 A    
C42   C50   1.392768 A    
H10   C36   1.103701 S    
C128  N16   1.429747 S    
N27   O106  1.303704 A    
C46   C86   1.421273 A    
Zn16  O34   1.939331 S    
C31   N31   1.490010 S    
C171  C175  1.421621 A    
C30   C40   1.644640 S    
C18   C165  1.506753 S    
N25   O101  1.299465 A    
C170  C174  1.419465 A    
Zn10  O22   1.929485 S    
C121  C129  1.424072 A    
C88   C120  1.409137 A    
C53   H33   1.081267 S    
N29   O109  1.299915 A    
O25   C8    1.269810 A    
Zn13  O29   1.936781 S    
C100  C124  1.436327 A    
Zn10  O2    1.969805 S    
C30   N6    1.493898 S    
C71   C79   1.420956 A    
O29   C12   1.289458 A    
C72   C80   1.419394 A    
N12   O75   1.301032 A    
C82   C114  1.432511 A    
N7    O65   1.303598 A    
C90   C98   1.437756 A    
C125  N13   1.435193 S    
N15   O81   1.299533 A    
C86   C118  1.403479 A    
O37   C17   1.293639 A    
C94   C102  1.416335 A    
O48   C23   1.275052 A    
C97   C109  1.397947 A    
N17   O85   1.301118 A    
C45   C85   1.415788 A    
C46   H26   1.081195 S    
C122  C130  1.416472 A    
C29   N5    1.494330 S    
N22   O95   1.301729 A    
H14   C138  1.083216 S    
C153  Cl1   1.759573 S    
C48   C88   1.416894 A    
C107  C115  1.414091 A    
C123  N11   1.427852 S    
C78   C94   1.420902 A    
Zn16  O35   1.935268 S    
C4    C90   1.461611 S    
C75   C87   1.409052 A    
C105  C113  1.406125 A    
Zn15  O33   1.936781 S    
Zn7   O10   1.942312 S    
C41   H21   1.074222 S    
O33   C16   1.287894 A    
C134  N18   1.433963 S    
H17   C141  1.083075 S    
C5    C95   1.454447 S    
C135  C139  1.393378 A    
O40   C20   1.275319 A    
C6    C96   1.464399 S    
N16   O83   1.301547 A    
C100  C112  1.417638 A    
C35   C36   1.533497 S    
C153  C157  1.390495 A    
N1    O54   1.299439 A    
N20   O91   1.301342 A    
C15   C119  1.457708 S    
C44   H24   1.082001 S    
C121  N9    1.434727 S    
Zn6   O11   1.944673 S    
Zn5   O17   1.944720 S    
C110  C150  1.413434 A    
C47   C55   1.391704 A    
C69   H49   1.080617 S    
C25   C27   1.630603 S    
C55   H35   1.082804 S    
C83   C115  1.409511 A    
N5    O62   1.299117 A    
C93   C101  1.430732 A    
H19   C143  1.083300 S    
H64   C179  1.082664 S    
N9    O70   1.300621 A    
N31   O114  1.303153 A    
Zn8   O3    1.958224 S    
C25   N25   1.501578 S    
C47   H27   1.078443 S    
C28   C37   1.622514 S    
N6    O63   1.303012 A    
C69   C77   1.418780 A    
O38   C18   1.287520 A    
C67   C75   1.421216 A    
C36   C40   1.570660 S    
O5    C1    1.282079 A    
N3    O58   1.300795 A    
N2    O56   1.299813 A    
O32   C9    1.288219 A    
C29   C39   1.635452 S    
C161  C162  1.426736 A    
C126  N14   1.444787 S    
C16   C120  1.457959 S    
C68   H48   1.082059 S    
C80   C84   1.412157 A    
Zn15  O51   1.951664 S    
N14   O80   1.299957 A    
C157  C158  1.381016 A    
C41   C49   1.395803 A    
Zn11  O28   1.939078 S    
C32   C39   1.650517 S    
Zn12  O40   1.951624 S    
C101  C125  1.431275 A    
C33   C37   1.565440 S    
C21   C37   1.501400 S    
C78   C82   1.399258 A    
N8    O68   1.301716 A    
C75   C91   1.418451 A    
C23   C39   1.504641 S    
C58   H38   1.081598 S    
H62   C177  1.082800 S    
C14   C118  1.450593 S    
C28   N28   1.488243 S    
O8    C4    1.278530 A    
N28   O107  1.300751 A    
C157  H65   1.083357 S    
C66   C74   1.419106 A    
C131  C143  1.392431 A    
C150  H58   1.081660 S    
C9    C113  1.459736 S    
O50   C18   1.296664 A    
C111  C151  1.413236 A    
C123  C131  1.419447 A    
C35   C39   1.565212 S    
C138  C146  1.392437 A    
Zn13  O1    1.969503 S    
Zn2   O14   1.940414 S    
C24   C40   1.494091 S    
C26   C38   1.628559 S    
C130  N22   1.441663 S    
C173  C177  1.390564 A    
C51   C63   1.387863 A    
O9    C5    1.281834 A    
C59   H39   1.082613 S    
O36   C13   1.290655 A    
C103  C107  1.416132 A    
N21   O94   1.301828 A    
C43   C51   1.392780 A    
C101  C105  1.402548 A    
C172  C176  1.421793 A    
O13   C9    1.275024 A    
N10   O71   1.300256 A    
Zn1   O8    1.940371 S    
H20   C144  1.083192 S    
Zn2   O7    1.944673 S    
C165  C169  1.422289 A    
Zn3   O6    1.942312 S    
N4    O60   1.299304 A    
O18   C14   1.272056 A    
O31   C10   1.280372 A    
O6    C2    1.282168 A    
C176  C180  1.392361 A    
C45   H25   1.074358 S    
N32   O116  1.303131 A    
C147  H55   1.079240 S    
C109  C117  1.405751 A    
C52   H32   1.082680 S    
N18   O88   1.301289 A    
N13   O77   1.301879 A    
C95   C103  1.430804 A    
Zn14  O30   1.939331 S    
Zn15  O3    1.969503 S    
C56   H36   1.082751 S    
Zn11  O3    1.950407 S    
O41   C21   1.261338 A    
C122  N10   1.429202 S    
C19   C168  1.442818 S    
C156  C160  1.388768 A    
C106  C146  1.417288 A    
C91   C99   1.428006 A    
N19   O89   1.301614 A    
C106  C114  1.429330 A    
C89   C97   1.431492 A    
C48   H28   1.082492 S    
Zn8   O20   1.942356 S    
C105  C145  1.410910 A    
C84   C116  1.409713 A    
C130  C142  1.388927 A    
C92   C100  1.429650 A    
C103  C127  1.438171 A    
C125  C133  1.416502 A    
C31   N7    1.505090 S    
C154  Cl2   1.757751 S    
C151  H59   1.077396 S    
C153  C162  1.425560 A    
C132  N24   1.437980 S    
C96   C104  1.434805 A    
H11   C36   1.105229 S    
C76   C92   1.418025 A    
C63   H43   1.082185 S    
C64   H44   1.082684 S    
C71   H51   1.081702 S    
Zn8   O9    1.935036 S    
C107  C147  1.410879 A    
O15   C11   1.282316 A    
C136  N20   1.438501 S    
H2    C174  1.076377 S    
C154  C158  1.391277 A    
O7    C3    1.266291 A    
H3    C175  1.082106 S    
N26   O103  1.298076 A    
C111  C119  1.417486 A    
C163  C164  1.428799 A    
O19   C15   1.285359 A    
C108  C148  1.411972 A    
C160  H68   1.083911 S    
C177  C178  1.384325 A    
Zn9   O24   1.939078 S    
Zn6   O18   1.940414 S    
C99   C111  1.414197 A    
Zn10  O23   1.936530 S    
C65   H45   1.079987 S    
C112  C152  1.411860 A    
H7    C34   1.103823 S    
C46   C54   1.387951 A    
C73   C85   1.415657 A    
C104  C108  1.414827 A    
C145  H53   1.081769 S    
C30   N30   1.500023 S    
Zn15  O36   1.929738 S    
N12   O76   1.299766 A    
O42   C22   1.280794 A    
C62   H42   1.082622 S    
Zn4   O1    1.958224 S    
C30   C32   1.621470 S    
C98   C122  1.445636 A    
N32   O115  1.296518 A    
Zn9   O37   1.961357 S    
O12   C8    1.278866 A    
N11   O73   1.296325 A    
Zn11  O39   1.961357 S    
C70   C78   1.421235 A    
N22   O96   1.301245 A    
C33   C34   1.524413 S    
C32   N8    1.508556 S    
C62   C70   1.390512 A    
N27   O105  1.298649 A    
Zn2   O43   1.960165 S    
Zn1   O1    1.939583 S    
C54   H34   1.082798 S    
C49   H29   1.075647 S    
Zn5   O3    1.939583 S    
C44   C52   1.392828 A    
Zn6   O4    1.939582 S    
C45   C53   1.393376 A    
C70   H50   1.075634 S    
C137  C145  1.388735 A    
N17   O86   1.300297 A    
N24   O99   1.301398 A    
C48   C56   1.392843 A    
C124  N12   1.430771 S    
C1    C91   1.455305 S    
C2    C92   1.460057 S    
C12   C116  1.456427 S    
N16   O84   1.299316 A    
C42   C82   1.425064 A    
C63   C71   1.392892 A    
C76   C88   1.411977 A    
C175  C179  1.392336 A    
C161  C165  1.430688 A    
O28   C5    1.278731 A    
N20   O92   1.301281 A    
C81   C113  1.419522 A    
Zn3   O42   1.950858 S    
C164  C168  1.427127 A    
H1    C173  1.076962 S    
N30   O111  1.301944 A    
Zn7   O4    1.958225 S    
O21   C4    1.275468 A    
C135  N19   1.445941 S    
N31   O113  1.302250 A    
C158  H66   1.083404 S    
C98   C110  1.420839 A    
C85   C117  1.422614 A    
C60   C68   1.393915 A    
C167  C171  1.412478 A    
C168  C172  1.412395 A    
Zn6   O47   1.960165 S    
C179  C180  1.387309 A    
C64   C72   1.393548 A    
Zn2   O2    1.939582 S    
C42   H22   1.072922 S    
N5    O61   1.302426 A    
Zn14  O2    1.950104 S    
N24   O100  1.300621 A    
C56   C60   1.389468 A    
Zn13  O49   1.951664 S    
N9    O69   1.301627 A    
C50   C62   1.384302 A    
C55   C59   1.387259 A    
N25   O102  1.299895 A    
H4    C176  1.082242 S    
H6    C34   1.096932 S    
C41   C81   1.411292 A    
H18   C142  1.083315 S    
N6    O64   1.302572 A    
Zn12  O27   1.936530 S    
N29   O110  1.303151 A    
C134  C138  1.395893 A    
C155  C164  1.440019 A    
Zn3   O2    1.958225 S    
C143  C151  1.383607 A    
C156  C163  1.438192 A    
C129  C141  1.396473 A    
C31   C40   1.621018 S    
C79   C95   1.416814 A    
N19   O90   1.300895 A    
O46   C24   1.262793 A    
O47   C24   1.288562 A    
H5    C33   1.099163 S    
Zn16  O52   1.961401 S    
C163  C167  1.428577 A    
Zn8   O45   1.950850 S    
C57   C65   1.390988 A    
O27   C6    1.300487 A    
O39   C19   1.277535 A    
C49   C61   1.384121 A    
C8    C94   1.450845 S    
C29   C31   1.623935 S    
N28   O108  1.302000 A    
C27   C38   1.653651 S    
C74   C90   1.426525 A    
O24   C1    1.279284 A    
C132  C144  1.392485 A    
C133  N17   1.434859 S    
C155  Cl3   1.765077 S    
C156  Cl4   1.761067 S    
C102  C106  1.393190 A    
C27   N3    1.508326 S    
C80   C96   1.419458 A    
C154  C161  1.426603 A    
O43   C22   1.275538 A    
C47   C87   1.416646 A    
Zn4   O41   1.950850 S    
Zn3   O15   1.935076 S    
N23   O98   1.300459 A    
C27   N27   1.496820 S    
N11   O74   1.298230 A    
Zn5   O12   1.940371 S    
C26   N26   1.485892 S    
C17   C166  1.506798 S    
C22   C38   1.502539 S    
Zn9   O21   1.935018 S    
Zn14  O50   1.961401 S    
N15   O82   1.297447 A    
C102  C126  1.426917 A    
O35   C14   1.272139 A    
N21   O93   1.302311 A    
C34   C38   1.564590 S    
Zn9   O1    1.950407 S    
N10   O72   1.300890 A    
C11   C115  1.458137 S    
O52   C20   1.279935 A    
C155  C159  1.389007 A    
C142  C150  1.380533 A    
C7    C93   1.465914 S    
C13   C117  1.462539 S    
O44   C21   1.293078 A    
O22   C3    1.305998 A    
Zn7   O19   1.935076 S    
C51   H31   1.082485 S    
C10   C114  1.464424 S    
C99   C123  1.435875 A    
C66   H46   1.073751 S    
C127  C135  1.418500 A    
Zn13  O32   1.929738 S    
O49   C17   1.290605 A    
Zn14  O31   1.935268 S    
C74   C86   1.406493 A    
C139  C147  1.382829 A    
O51   C19   1.276563 A    
C146  H54   1.077384 S    
C77   C93   1.409579 A    
N2    O55   1.302604 A    
C3    C89   1.475606 S    
C43   H23   1.078309 S    
Zn4   O5    1.935036 S    
O17   C13   1.274058 A    
O20   C16   1.283179 A    
C127  N15   1.426567 S    
N14   O79   1.300757 A    
O10   C6    1.278073 A    
O23   C2    1.292424 A    
Zn11  O25   1.935018 S    
C26   N2    1.496155 S    
N1    O53   1.303408 A    
Zn10  O38   1.951624 S    
C140  C148  1.384599 A    
H9    C35   1.099180 S    
C44   C84   1.416976 A    
O14   C10   1.277098 A    
C68   C76   1.418578 A    
N8    O67   1.300848 A    
C144  C152  1.384878 A    
C61   C69   1.387108 A    
C73   C89   1.414912 A    
C104  C128  1.437822 A    
H12   C35   1.104087 S    
C67   H47   1.080595 S    
O45   C23   1.282670 A    
