data_mof_unit_3696.cif
_audit_creation_date              2012-12-11T16:36:07-0500
_audit_creation_method            fapswitch 2.2
_symmetry_space_group_name_H-M    P1
_symmetry_Int_Tables_number       1
_space_group_crystal_system       triclinic
_cell_length_a                    21.514829
_cell_length_b                    21.495879
_cell_length_c                    22.366643
_cell_angle_alpha                 89.787655
_cell_angle_beta                  90.188134
_cell_angle_gamma                 89.832395
_cell_volume                      10343.9572222

loop_
_atom_site_label
_atom_site_type_symbol
_atom_type_description
_atom_site_fract_x
_atom_site_fract_y
_atom_site_fract_z
_atom_type_partial_charge
C1    C     C_R   0.433835 0.640430 0.607658 -0.051847
C2    C     C_R   0.582674 0.655842 0.584642 -0.190368
C3    C     C_R   0.801127 0.298089 0.836640 0.416079
C4    C     C_R   0.789601 0.874541 0.271232 0.493606
C5    C     C_R   0.185466 0.120974 0.702754 0.516126
C6    C     C_R   0.766931 0.301698 0.112329 0.417663
C7    C     C_R   0.215025 0.697774 0.855341 0.446945
C8    C     C_R   0.300031 0.764315 0.886856 0.417922
C9    C     C_R   0.700375 0.217611 0.146471 0.447101
C10   C     C_R   0.134275 0.219910 0.727053 0.481047
C11   C     C_R   0.875564 0.800531 0.285930 0.515863
C12   C     C_R   0.713880 0.256640 0.892782 0.414462
C13   C     C_R   0.641060 0.433193 0.392936 -0.059946
C14   C     C_R   0.297618 0.801296 0.163765 0.418389
C15   C     C_R   0.870640 0.788677 0.729535 0.480703
C16   C     C_R   0.119707 0.186770 0.296264 0.519898
C17   C     C_R   0.745082 0.697450 0.599127 -0.196336
C18   C     C_R   0.267909 0.329211 0.332803 -0.181834
C19   C     C_R   0.618976 0.310130 0.728717 -0.258724
C20   C     C_R   0.414931 0.658258 0.253184 -0.185469
C21   C     C_R   0.252396 0.302814 0.591599 -0.201098
C22   C     C_R   0.720091 0.671435 0.319793 -0.171076
C23   C     C_R   0.343810 0.706822 0.699412 -0.192593
C24   C     C_R   0.358914 0.568208 0.607214 -0.128801
C25   C     C_R   0.605810 0.355061 0.254780 -0.217193
C26   C     C_R   0.709102 0.345817 0.301376 -0.166209
C27   C     C_R   0.355993 0.603699 0.745950 -0.216787
C28   C     C_R   0.694792 0.746500 0.399212 -0.196888
C29   C     C_R   0.328779 0.267892 0.666857 -0.175390
C30   C     C_R   0.310535 0.618699 0.271195 -0.260417
C31   C     C_R   0.658055 0.414779 0.746743 -0.185634
C32   C     C_R   0.301195 0.253147 0.409002 -0.198310
C33   C     C_R   0.669810 0.721791 0.678702 -0.173811
C34   C     C_R   0.188951 0.098538 0.231407 -0.225671
C35   C     C_R   0.581652 0.655320 0.413203 -0.142072
C36   C     C_R   0.837426 0.912724 0.754567 -0.272303
C37   C     C_R   0.205898 0.750708 0.088226 -0.151765
C38   C     C_R   0.832335 0.241111 0.843891 -0.272874
C39   C     C_R   0.829458 0.912718 0.238781 -0.254872
C40   C     C_R   0.152650 0.092111 0.750948 -0.235746
C41   C     C_R   0.808922 0.257728 0.088884 -0.137632
C42   C     C_R   0.172475 0.746756 0.864967 -0.240107
C43   C     C_R   0.256827 0.807605 0.909470 -0.123047
C44   C     C_R   0.748395 0.174324 0.135718 -0.267343
C45   C     C_R   0.097794 0.189296 0.768861 -0.235608
C46   C     C_R   0.416417 0.343289 0.582248 -0.184524
C47   C     C_R   0.912087 0.836808 0.245468 -0.268071
C48   C     C_R   0.750733 0.205855 0.911774 -0.154093
C49   C     C_R   0.240649 0.832393 0.156282 -0.275404
C50   C     C_R   0.909858 0.826952 0.762475 -0.243228
C51   C     C_R   0.091270 0.152520 0.248845 -0.237937
C52   C     C_3   0.864038 0.791497 0.572636 0.215289
C53   C     C_3   0.934749 0.798777 0.574522 -0.191866
C54   C     C_3   0.956863 0.853608 0.537023 -1.031286
C55   C     C_3   0.219936 0.288934 0.208489 0.191692
C56   C     C_3   0.186276 0.320481 0.156280 -0.213927
C57   C     C_R   0.364216 0.561757 0.388904 -0.119848
C58   C     C_3   0.218792 0.307382 0.097080 -1.030825
C59   C     C_3   0.717442 0.198226 0.749923 0.204250
C60   C     C_3   0.698933 0.162274 0.693826 -0.270238
C61   C     C_3   0.755616 0.132241 0.664768 -0.957047
C62   C     C_3   0.455722 0.686551 0.121595 0.193746
C63   C     C_3   0.516902 0.713461 0.098471 -0.238606
C64   C     C_3   0.540304 0.677924 0.043990 -1.065521
C65   C     C_3   0.129514 0.219414 0.558407 0.231705
C66   C     C_3   0.063204 0.233846 0.537333 -0.203387
C67   C     C_3   0.035955 0.182473 0.498511 -1.025369
C68   C     C_R   0.635957 0.435982 0.611390 -0.113015
C69   C     C_3   0.754820 0.721269 0.192120 0.187773
C70   C     C_3   0.775983 0.686331 0.136395 -0.220429
C71   C     C_3   0.738158 0.705526 0.081450 -1.055787
C72   C     C_3   0.232514 0.786839 0.723496 0.181004
C73   C     C_3   0.202289 0.851054 0.726418 -0.330303
C74   C     C_3   0.141400 0.852597 0.691228 -0.936609
C75   C     C_3   0.605418 0.393096 0.115731 0.134278
C76   C     C_3   0.546334 0.432729 0.114382 -0.202719
C77   C     C_3   0.554441 0.489688 0.074426 -1.082829
C78   C     C_3   0.802268 0.241259 0.258078 0.174535
C79   C     C_R   0.915747 0.157025 0.081724 -0.094559
C80   C     C_3   0.840046 0.231472 0.315480 -0.367124
C81   C     C_3   0.860422 0.163692 0.322164 -0.914543
C82   C     C_3   0.387686 0.602156 0.886733 0.140465
C83   C     C_3   0.423317 0.541317 0.896156 -0.198802
C84   C     C_3   0.477490 0.549959 0.939359 -1.087900
C85   C     C_3   0.784959 0.863766 0.430287 0.226000
C86   C     C_3   0.788156 0.934402 0.437576 -0.190411
C87   C     C_3   0.840561 0.954022 0.479228 -1.036567
C88   C     C_3   0.288002 0.220319 0.791488 0.192836
C89   C     C_3   0.318063 0.185402 0.843739 -0.214393
C90   C     C_R   0.084931 0.842413 0.921603 -0.117671
C91   C     C_3   0.304964 0.217661 0.903072 -1.029966
C92   C     C_3   0.197947 0.716480 0.250111 0.205644
C93   C     C_3   0.161049 0.697230 0.305410 -0.269968
C94   C     C_3   0.129736 0.753415 0.334152 -0.956421
C95   C     C_3   0.685032 0.454977 0.878810 0.188739
C96   C     C_3   0.709183 0.517842 0.900593 -0.239715
C97   C     C_3   0.672731 0.540698 0.954718 -1.064573
C98   C     C_3   0.205644 0.125010 0.427704 0.230035
C99   C     C_3   0.218931 0.089108 0.485622 -0.248627
C100  C     C_3   0.163450 0.050150 0.505219 -0.986005
C101  C     C_R   0.137668 0.061339 0.109444 -0.135686
C102  C     C_3   0.716794 0.758289 0.806219 0.191588
C103  C     C_3   0.681875 0.781066 0.861370 -0.220923
C104  C     C_3   0.699458 0.743370 0.916913 -1.056409
C105  C     C_3   0.319636 0.157734 0.249702 0.274882
C106  C     C_3   0.387107 0.139742 0.262518 -0.216997
C107  C     C_3   0.431901 0.177241 0.223910 -1.019109
C108  C     C_3   0.716753 0.950437 0.695856 0.222802
C109  C     C_3   0.683256 0.937719 0.755404 -0.328004
C110  C     C_3   0.649359 0.995806 0.777179 -0.989443
C111  C     C_3   0.287858 0.636517 0.044416 0.220573
C112  C     C_R   0.568863 0.358204 0.393386 -0.126731
C113  C     C_R   0.868014 0.940550 0.886358 -0.099459
C114  C     C_3   0.301774 0.566635 0.043061 -0.256784
C115  C     C_3   0.349286 0.547658 0.090642 -0.869805
C116  C     C_3   0.878875 0.370711 0.829384 0.256739
C117  C     C_3   0.860464 0.419236 0.876239 -0.282388
C118  C     C_3   0.917187 0.443702 0.909709 -1.051603
C119  C     C_3   0.689603 0.877388 0.237612 0.240690
C120  C     C_3   0.626012 0.906873 0.248475 -0.170612
C121  C     C_3   0.579114 0.887584 0.200747 -1.042116
C122  C     C_3   0.252922 0.037188 0.672166 0.177563
C123  C     C_3   0.300965 0.047473 0.722280 -0.300501
C124  C     C_R   0.084819 0.842784 0.082058 -0.087294
C125  C     C_3   0.333840 0.986957 0.739371 -0.984120
C126  C     C_3   0.766429 0.391624 0.056502 0.208097
C127  C     C_3   0.803502 0.451563 0.048370 -0.309933
C128  C     C_3   0.785354 0.500952 0.094076 -0.772702
C129  C     C_3   0.164223 0.605205 0.871535 0.297810
C130  C     C_3   0.207640 0.556055 0.898216 -0.317273
C131  C     C_3   0.173302 0.513235 0.941390 -1.067088
C132  C     C_3   0.390669 0.764855 0.941745 0.198212
C133  C     C_3   0.447619 0.806223 0.950588 -0.303680
C134  C     C_3   0.498769 0.791711 0.905495 -0.778491
C135  C     C_R   0.915850 0.157088 0.918419 -0.058271
C136  C     C_3   0.607427 0.166370 0.133948 0.300729
C137  C     C_3   0.558406 0.209329 0.106449 -0.316608
C138  C     C_3   0.515319 0.174098 0.064244 -1.066249
C139  C     C_3   0.156579 0.320301 0.752391 0.269363
C140  C     C_3   0.138082 0.387962 0.740996 -0.211507
C141  C     C_3   0.175358 0.432209 0.780343 -1.023155
C142  C     C_3   0.946235 0.715091 0.304440 0.220914
C143  C     C_3   0.933333 0.681581 0.244960 -0.324049
C144  C     C_3   0.990797 0.646249 0.223825 -0.989503
C145  C     C_3   0.637895 0.287514 0.957674 0.218491
C146  C     C_R   0.867253 0.940863 0.112690 -0.158498
C147  C     C_3   0.568258 0.302222 0.960363 -0.254686
C148  C     C_3   0.549589 0.352858 0.915718 -0.884486
C149  C     C_3   0.369727 0.879508 0.171779 0.255275
C150  C     C_3   0.419784 0.861600 0.126329 -0.277103
C151  C     C_3   0.443488 0.918391 0.092347 -1.053174
C152  C     C_3   0.869768 0.688087 0.762010 0.246923
C153  C     C_3   0.898017 0.623922 0.751032 -0.173283
C154  C     C_3   0.877114 0.576987 0.798122 -1.038256
C155  C     C_3   0.035086 0.254877 0.323193 0.193925
C156  C     C_3   0.044569 0.299968 0.270370 -0.318041
C157  C     C_R   0.132976 0.063103 0.886799 -0.100791
C158  C     C_3   0.983333 0.330048 0.251117 -0.978656
C159  C     C_2   0.761045 0.665323 0.542043 0.544308
C160  C     C_2   0.274622 0.390213 0.301938 0.570984
C161  C     C_2   0.563781 0.272666 0.713291 0.675924
C162  C     C_2   0.483062 0.654380 0.264264 0.540436
C163  C     C_2   0.236233 0.340382 0.537519 0.542952
C164  C     C_2   0.710269 0.610359 0.289695 0.568837
C165  C     C_2   0.351343 0.751497 0.648889 0.532047
C166  C     C_2   0.538423 0.370629 0.258422 0.550792
C167  C     C_2   0.752555 0.352192 0.352849 0.529942
C168  C     C_R   0.940674 0.866880 0.887560 -0.154364
C169  C     C_2   0.374411 0.536965 0.742311 0.553374
C170  C     C_2   0.662025 0.762513 0.455883 0.544346
C171  C     C_2   0.390044 0.273645 0.697319 0.571578
C172  C     C_2   0.273508 0.563100 0.286288 0.674719
C173  C     C_2   0.654006 0.482949 0.735647 0.541009
C174  C     C_2   0.337716 0.237602 0.463946 0.551906
C175  C     C_2   0.608891 0.711279 0.708823 0.567166
C176  C     C_2   0.215267 0.036721 0.217713 0.547624
C177  C     C_2   0.835424 0.981280 0.758960 0.597552
C178  C     C_2   0.160745 0.721854 0.046818 0.467998
C179  C     C_R   0.062854 0.132750 0.113341 -0.111215
C180  C     C_2   0.878169 0.223214 0.797414 0.462675
C181  C     C_2   0.820654 0.981125 0.237510 0.585196
C182  C     C_2   0.147529 0.024015 0.758478 0.565969
C183  C     C_2   0.860050 0.281166 0.051139 0.474621
C184  C     C_2   0.111351 0.745227 0.833670 0.585960
C185  C     C_2   0.281043 0.859062 0.946318 0.469054
C186  C     C_2   0.747984 0.114110 0.168868 0.589722
C187  C     C_2   0.035724 0.214866 0.782603 0.548840
C188  C     C_2   0.980455 0.832472 0.240823 0.590956
C189  C     C_2   0.721860 0.160281 0.952762 0.471110
C190  C     C_R   0.156798 0.915527 0.917876 -0.083686
C191  C     C_2   0.222466 0.878396 0.202549 0.465142
C192  C     C_2   0.977661 0.815051 0.764533 0.555161
C193  C     C_2   0.023324 0.145320 0.242420 0.571407
C194  C     C_R   0.842464 0.085270 0.078242 -0.120330
C195  C     C_R   0.061603 0.137969 0.890768 -0.141414
C196  C     C_R   0.655359 0.582149 0.586383 -0.141737
C197  C     C_R   0.940836 0.868155 0.113738 -0.096743
C198  C     C_R   0.842864 0.084798 0.917842 -0.091396
C199  C     C_R   0.157129 0.915742 0.081235 -0.063536
C200  C     C_R   0.770679 0.772470 0.676608 -0.159669
C201  C     C_R   0.219349 0.227394 0.337777 -0.165055
C202  C     C_R   0.695316 0.327356 0.806849 -0.154016
C203  C     C_R   0.327369 0.695448 0.193328 -0.151193
C204  C     C_R   0.226278 0.221042 0.662657 -0.160432
C205  C     C_R   0.769406 0.773210 0.321696 -0.160324
C206  C     C_R   0.314293 0.690209 0.803326 -0.067053
C207  C     C_R   0.343339 0.416503 0.417666 -0.184161
C208  C     C_R   0.694041 0.318185 0.196799 -0.084465
C209  C     C_R   0.184654 0.180679 0.303955 -0.151761
C210  C     C_R   0.815052 0.813723 0.706706 -0.139902
C211  C     C_R   0.299740 0.738182 0.148715 -0.084374
C212  C     C_R   0.738055 0.299987 0.851607 -0.082644
C213  C     C_R   0.812262 0.817342 0.293006 -0.140969
C214  C     C_R   0.179272 0.186030 0.695748 -0.123926
C215  C     C_R   0.716008 0.280942 0.145851 -0.122795
C216  C     C_R   0.278372 0.712576 0.854942 -0.112348
C217  C     C_R   0.686520 0.688213 0.626878 -0.168198
C218  C     C_R   0.561737 0.364139 0.611088 -0.119243
C219  C     C_R   0.307763 0.311897 0.380509 -0.184941
C220  C     C_R   0.625402 0.372487 0.709437 -0.200377
C221  C     C_R   0.372775 0.625365 0.290477 -0.199261
C222  C     C_R   0.311644 0.308094 0.619298 -0.176993
C223  C     C_R   0.686812 0.687438 0.371985 -0.165055
C224  C     C_R   0.360392 0.643237 0.695371 -0.131176
C225  C     C_R   0.644845 0.359446 0.305648 -0.136867
C226  C     C_R   0.129445 0.116741 0.210555 -0.083266
C227  C     C_R   0.884835 0.881567 0.786767 -0.064371
C228  C     C_R   0.197102 0.810664 0.113736 0.001911
C229  C     C_R   0.436040 0.635961 0.388573 -0.111970
C230  C     C_R   0.810675 0.197214 0.886194 0.003766
C231  C     C_R   0.882620 0.885613 0.213727 -0.061907
C232  C     C_R   0.116796 0.129954 0.789588 -0.082137
C233  C     C_R   0.802982 0.193815 0.105133 -0.037893
C234  C     C_R   0.192822 0.802179 0.893740 -0.028442
C235  C     C_R   0.382963 0.618421 0.638632 0.152852
C236  C     C_R   0.619484 0.381885 0.362268 0.157174
C237  C     C_R   0.642533 0.642674 0.603004 0.098914
C238  C     C_R   0.355528 0.356309 0.400252 0.099015
C239  C     C_R   0.607883 0.390168 0.646810 0.111006
C240  C     C_R   0.344194 0.417120 0.584982 -0.141088
C241  C     C_R   0.390354 0.607848 0.353126 0.110702
C242  C     C_R   0.356245 0.355591 0.599590 0.097212
C243  C     C_R   0.642025 0.642772 0.396266 0.097272
C244  C     C_R   0.852907 0.147112 0.092522 0.135310
C245  C     C_R   0.146583 0.852618 0.906708 0.126265
C246  C     C_R   0.110342 0.104062 0.147346 0.135685
C247  C     C_R   0.897970 0.896739 0.850474 0.123457
C248  C     C_R   0.146704 0.854146 0.095642 0.257068
C249  C     C_R   0.854238 0.146701 0.904072 0.255766
C250  C     C_R   0.897313 0.898248 0.149778 0.120200
C251  C     C_R   0.655584 0.582876 0.414853 -0.189097
C252  C     C_R   0.104363 0.110728 0.852848 0.142095
C253  C     C_R   0.787586 0.739219 0.624788 0.531972
C254  C     C_R   0.224283 0.286564 0.311221 0.513569
C255  C     C_R   0.660521 0.286253 0.770869 0.538880
C256  C     C_R   0.392005 0.691558 0.203027 0.560253
C257  C     C_R   0.209122 0.260082 0.614524 0.526000
C258  C     C_R   0.760354 0.715152 0.294217 0.522436
C259  C     C_R   0.316668 0.728774 0.752250 0.430532
C260  C     C_R   0.631641 0.337506 0.199725 0.561896
C261  C     C_R   0.732991 0.322976 0.247590 0.439608
C262  C     C_R   0.417013 0.344135 0.415014 -0.143320
C263  C     C_R   0.335797 0.628483 0.800658 0.549972
C264  C     C_R   0.735844 0.789620 0.373372 0.528472
C265  C     C_R   0.285626 0.224978 0.688810 0.497361
C266  C     C_R   0.286472 0.660323 0.229235 0.538329
C267  C     C_R   0.691249 0.391992 0.796979 0.562389
C268  C     C_R   0.257829 0.210121 0.386620 0.543888
C269  C     C_R   0.712678 0.763071 0.703924 0.521745
C270  C     C_R   0.218926 0.135403 0.273397 0.460126
C271  C     C_R   0.800232 0.877494 0.713906 0.514573
C272  C     C_R   0.256430 0.713831 0.107596 0.413139
H1    H     H_    0.463178 0.679036 0.619844 0.096518
H2    H     H_    0.561417 0.701450 0.582395 0.125484
H3    H     H_    0.510001 0.585806 0.922141 0.277710
H4    H     H_    0.503024 0.505294 0.944043 0.282033
H5    H     H_    0.460112 0.564370 0.983909 0.281017
H6    H     H_    0.829924 0.846697 0.411861 0.087251
H7    H     H_    0.776593 0.842124 0.474692 0.091823
H8    H     H_    0.795301 0.956427 0.393068 0.231566
H9    H     H_    0.743325 0.951587 0.455901 0.227844
H10   H     H_    0.834731 0.932045 0.523845 0.276658
H11   H     H_    0.839597 0.005327 0.484744 0.288727
H12   H     H_    0.886089 0.940739 0.459852 0.282753
H13   H     H_    0.679781 0.462463 0.380921 0.094132
H14   H     H_    0.237176 0.222031 0.799453 0.061250
H15   H     H_    0.306557 0.268685 0.790620 0.086844
H16   H     H_    0.299475 0.137267 0.845762 0.181555
H17   H     H_    0.369136 0.182785 0.836801 0.233313
H18   H     H_    0.323976 0.265654 0.902612 0.273761
H19   H     H_    0.327412 0.191223 0.940062 0.275247
H20   H     H_    0.254110 0.219643 0.911403 0.268687
H21   H     H_    0.165562 0.739918 0.218461 0.133754
H22   H     H_    0.233503 0.751599 0.263487 0.088928
H23   H     H_    0.124932 0.662875 0.292548 0.234558
H24   H     H_    0.319045 0.540433 0.619069 0.114332
H25   H     H_    0.192863 0.675455 0.338686 0.228503
H26   H     H_    0.098861 0.777278 0.301418 0.282532
H27   H     H_    0.165309 0.786833 0.350206 0.284546
H28   H     H_    0.101416 0.737929 0.372827 0.267430
H29   H     H_    0.686242 0.421580 0.916637 0.087254
H30   H     H_    0.635891 0.461701 0.863810 0.076061
H31   H     H_    0.759032 0.513766 0.912858 0.190695
H32   H     H_    0.705036 0.552803 0.864087 0.227841
H33   H     H_    0.623121 0.547814 0.942651 0.284320
H34   H     H_    0.692185 0.585610 0.970319 0.284186
H35   H     H_    0.559250 0.700394 0.413033 0.118324
H36   H     H_    0.675982 0.506376 0.991819 0.271595
H37   H     H_    0.186448 0.092294 0.394068 0.136629
H38   H     H_    0.170127 0.161496 0.436216 0.064174
H39   H     H_    0.259253 0.057480 0.478791 0.240461
H40   H     H_    0.231244 0.122395 0.521655 0.210547
H41   H     H_    0.122450 0.080227 0.512792 0.269589
H42   H     H_    0.174837 0.025528 0.547606 0.287456
H43   H     H_    0.151980 0.015037 0.470618 0.276393
H44   H     H_    0.767374 0.764699 0.814143 0.068667
H45   H     H_    0.706757 0.707739 0.800290 0.087324
H46   H     H_    0.437282 0.297642 0.578235 0.126467
H47   H     H_    0.692824 0.830894 0.869188 0.187677
H48   H     H_    0.631064 0.776811 0.853483 0.231086
H49   H     H_    0.687629 0.693558 0.910518 0.278197
H50   H     H_    0.673306 0.761126 0.956057 0.279674
H51   H     H_    0.750011 0.747612 0.926262 0.273540
H52   H     H_    0.314570 0.208450 0.257696 0.034027
H53   H     H_    0.308992 0.147571 0.201897 0.097548
H54   H     H_    0.397809 0.148392 0.310441 0.220150
H55   H     H_    0.393772 0.089359 0.253430 0.222394
H56   H     H_    0.422002 0.169387 0.175773 0.270758
H57   H     H_    0.327485 0.530261 0.378581 0.089399
H58   H     H_    0.480417 0.162440 0.233524 0.284301
H59   H     H_    0.427438 0.227660 0.233811 0.296819
H60   H     H_    0.679716 0.957316 0.661724 0.147320
H61   H     H_    0.742159 0.994905 0.694268 0.085594
H62   H     H_    0.648484 0.900311 0.748694 0.268976
H63   H     H_    0.716274 0.922479 0.790754 0.190162
H64   H     H_    0.682930 0.033953 0.785685 0.262925
H65   H     H_    0.624681 0.985126 0.819499 0.277455
H66   H     H_    0.614727 0.011522 0.743370 0.283108
H67   H     H_    0.332098 0.662690 0.040149 0.043334
H68   H     H_    0.675483 0.464063 0.623184 0.116412
H69   H     H_    0.258216 0.648519 0.005241 0.033887
H70   H     H_    0.258017 0.540381 0.050386 0.217855
H71   H     H_    0.320167 0.553513 0.998608 0.152651
H72   H     H_    0.394553 0.570274 0.081577 0.220115
H73   H     H_    0.356210 0.496472 0.089517 0.248188
H74   H     H_    0.332959 0.560849 0.135926 0.273764
H75   H     H_    0.907036 0.394143 0.794428 0.132785
H76   H     H_    0.909848 0.334952 0.850128 0.091159
H77   H     H_    0.837007 0.458809 0.853552 0.250139
H78   H     H_    0.827839 0.398469 0.909111 0.197118
H79   H     H_    0.939957 0.200863 0.082386 0.096602
H80   H     H_    0.940105 0.405410 0.935046 0.282446
H81   H     H_    0.902457 0.480163 0.941761 0.271536
H82   H     H_    0.950940 0.464382 0.877902 0.280589
H83   H     H_    0.683851 0.826014 0.237147 0.054895
H84   H     H_    0.707198 0.893625 0.193360 0.078360
H85   H     H_    0.608581 0.892165 0.293073 0.220871
H86   H     H_    0.630544 0.958383 0.248174 0.231809
H87   H     H_    0.594847 0.902900 0.155801 0.271973
H88   H     H_    0.533521 0.909677 0.210258 0.281469
H89   H     H_    0.573105 0.836255 0.200899 0.288990
H90   H     H_    0.063150 0.797650 0.928029 0.138332
H91   H     H_    0.279816 0.024706 0.631601 0.146163
H92   H     H_    0.222788 0.996255 0.678617 0.086954
H93   H     H_    0.336409 0.081089 0.706384 0.270262
H94   H     H_    0.278644 0.066476 0.762916 0.192997
H95   H     H_    0.300614 0.954333 0.760609 0.263686
H96   H     H_    0.371478 0.996915 0.772018 0.282986
H97   H     H_    0.354647 0.964775 0.699339 0.276481
H98   H     H_    0.716366 0.402842 0.054552 0.069500
H99   H     H_    0.776630 0.360966 0.017692 0.028445
H100  H     H_    0.853979 0.441217 0.052529 0.202010
H101  H     H_    0.177506 0.032397 0.116199 0.083629
H102  H     H_    0.794933 0.470241 0.002817 0.159481
H103  H     H_    0.735065 0.512213 0.090360 0.232738
H104  H     H_    0.812415 0.543959 0.085570 0.226809
H105  H     H_    0.795673 0.484443 0.140172 0.293710
H106  H     H_    0.126037 0.580947 0.847616 0.152467
H107  H     H_    0.142071 0.632247 0.908393 0.100185
H108  H     H_    0.228237 0.527793 0.861788 0.271418
H109  H     H_    0.245494 0.579631 0.922798 0.212383
H110  H     H_    0.154457 0.540401 0.979445 0.276058
H111  H     H_    0.205960 0.477558 0.959182 0.282863
H112  H     H_    0.541224 0.318151 0.381745 0.113664
H113  H     H_    0.830554 0.971034 0.873531 0.078130
H114  H     H_    0.134529 0.489290 0.918108 0.280829
H115  H     H_    0.405835 0.715747 0.943154 0.077170
H116  H     H_    0.359095 0.772167 0.980536 0.028710
H117  H     H_    0.433840 0.855904 0.946363 0.199828
H118  H     H_    0.466253 0.798909 0.996346 0.159614
H119  H     H_    0.513690 0.742353 0.909540 0.235927
H120  H     H_    0.539513 0.821928 0.914357 0.226805
H121  H     H_    0.482140 0.800675 0.859188 0.292736
H122  H     H_    0.583173 0.129403 0.159632 0.149942
H123  H     H_    0.633545 0.142469 0.097504 0.103761
H124  H     H_    0.062461 0.797841 0.081331 0.103556
H125  H     H_    0.530427 0.231033 0.142494 0.273149
H126  H     H_    0.582140 0.246352 0.080841 0.214498
H127  H     H_    0.542206 0.154412 0.026404 0.275604
H128  H     H_    0.479619 0.206456 0.046001 0.283834
H129  H     H_    0.491506 0.135812 0.088435 0.280554
H130  H     H_    0.207213 0.315700 0.743861 0.036897
H131  H     H_    0.146828 0.308575 0.800058 0.094828
H132  H     H_    0.146454 0.399787 0.693259 0.220944
H133  H     H_    0.087734 0.394069 0.750407 0.221232
H134  H     H_    0.167645 0.421281 0.828310 0.270752
H135  H     H_    0.937683 0.202221 0.921267 0.120268
H136  H     H_    0.160246 0.480853 0.771640 0.285100
H137  H     H_    0.225743 0.428271 0.770265 0.296531
H138  H     H_    0.952081 0.678021 0.338756 0.148093
H139  H     H_    0.991150 0.739657 0.306351 0.085321
H140  H     H_    0.895114 0.647665 0.251532 0.269941
H141  H     H_    0.919122 0.714812 0.209369 0.191473
H142  H     H_    0.029757 0.678923 0.215524 0.263208
H143  H     H_    0.979971 0.621620 0.181518 0.278088
H144  H     H_    0.005384 0.611387 0.257908 0.282541
H145  H     H_    0.664701 0.331360 0.962591 0.043986
H146  H     H_    0.829268 0.971293 0.123819 0.083861
H147  H     H_    0.649997 0.256716 0.996017 0.039060
H148  H     H_    0.541370 0.259271 0.950908 0.218749
H149  H     H_    0.555684 0.318150 0.005843 0.155329
H150  H     H_    0.571327 0.397654 0.928415 0.224163
H151  H     H_    0.498344 0.359059 0.916341 0.250561
H152  H     H_    0.563931 0.340106 0.869688 0.273425
H153  H     H_    0.391693 0.908251 0.207157 0.133998
H154  H     H_    0.334144 0.909857 0.149928 0.090009
H155  H     H_    0.459372 0.839579 0.150314 0.248622
H156  H     H_    0.400635 0.827855 0.093600 0.199301
H157  H     H_    0.170232 0.033012 0.872717 0.074659
H158  H     H_    0.405273 0.939703 0.065680 0.282600
H159  H     H_    0.481143 0.904048 0.061440 0.272730
H160  H     H_    0.462309 0.953411 0.123940 0.280482
H161  H     H_    0.818321 0.683502 0.761574 0.052246
H162  H     H_    0.885579 0.704888 0.806680 0.080901
H163  H     H_    0.883604 0.607176 0.706112 0.219320
H164  H     H_    0.949561 0.627361 0.752026 0.232615
H165  H     H_    0.891914 0.592106 0.843410 0.270400
H166  H     H_    0.898605 0.531082 0.788606 0.281465
H167  H     H_    0.825742 0.571847 0.797132 0.293913
H168  H     H_    0.970958 0.828698 0.876798 0.086065
H169  H     H_    0.022159 0.284011 0.362173 0.144243
H170  H     H_    0.994637 0.223762 0.318388 0.094603
H171  H     H_    0.077179 0.337244 0.284161 0.270117
H172  H     H_    0.064413 0.275645 0.231210 0.191035
H173  H     H_    0.950972 0.294265 0.233601 0.268013
H174  H     H_    0.992195 0.364485 0.215037 0.281160
H175  H     H_    0.961374 0.354406 0.289372 0.275614
H176  H     H_    0.724690 0.648109 0.512968 -0.008461
H177  H     H_    0.319821 0.412137 0.298880 -0.021378
H178  H     H_    0.518888 0.295261 0.712334 -0.021034
H179  H     H_    0.032714 0.169934 0.127515 0.076080
H180  H     H_    0.502568 0.613806 0.286535 -0.011349
H181  H     H_    0.272556 0.357337 0.508460 -0.004411
H182  H     H_    0.666416 0.586041 0.294080 -0.006482
H183  H     H_    0.362393 0.799735 0.658267 0.052273
H184  H     H_    0.521812 0.404445 0.290532 -0.017074
H185  H     H_    0.800334 0.366033 0.345039 0.051726
H186  H     H_    0.409430 0.522009 0.710643 -0.017423
H187  H     H_    0.647392 0.726157 0.486324 -0.010332
H188  H     H_    0.412573 0.318566 0.700416 -0.020973
H189  H     H_    0.296538 0.518411 0.287339 -0.021104
H190  H     H_    0.200677 0.939598 0.917037 0.093906
H191  H     H_    0.613297 0.502409 0.713621 -0.011650
H192  H     H_    0.356080 0.274330 0.491687 -0.006966
H193  H     H_    0.585624 0.666743 0.705324 -0.006459
H194  H     H_    0.183614 0.998825 0.209436 0.067236
H195  H     H_    0.795100 0.004954 0.776765 -0.042774
H196  H     H_    0.150017 0.672705 0.050680 0.065116
H197  H     H_    0.902876 0.258438 0.772268 0.093841
H198  H     H_    0.855810 0.010493 0.217302 0.013920
H199  H     H_    0.187884 0.995888 0.769266 -0.041207
H200  H     H_    0.886000 0.322060 0.064500 0.045606
H201  H     H_    0.797609 0.063574 0.072317 0.140287
H202  H     H_    0.091391 0.788350 0.817708 0.000032
H203  H     H_    0.321316 0.885189 0.931689 0.043390
H204  H     H_    0.791585 0.094843 0.184447 -0.002970
H205  H     H_    0.998301 0.182712 0.791106 0.069945
H206  H     H_    0.002674 0.791285 0.223088 -0.043074
H207  H     H_    0.672903 0.149117 0.948326 0.064152
H208  H     H_    0.257483 0.903260 0.227778 0.091436
H209  H     H_    0.008567 0.850432 0.782064 0.019522
H210  H     H_    0.994345 0.184047 0.228461 -0.044954
H211  H     H_    0.032895 0.178029 0.884251 0.084200
H212  H     H_    0.700541 0.560010 0.586430 0.116695
H213  H     H_    0.971480 0.830825 0.126535 0.079066
H214  H     H_    0.797966 0.062417 0.918619 0.103980
H215  H     H_    0.202260 0.937493 0.078089 0.119433
H216  H     H_    0.842023 0.834696 0.590131 0.084238
H217  H     H_    0.849234 0.784373 0.525589 0.105197
H218  H     H_    0.950091 0.805599 0.621530 0.225883
H219  H     H_    0.956890 0.755558 0.557494 0.228495
H220  H     H_    0.941767 0.847984 0.489829 0.276533
H221  H     H_    0.008414 0.855667 0.538281 0.286946
H222  H     H_    0.938319 0.897777 0.555413 0.285050
H223  H     H_    0.297754 0.437438 0.421659 0.126807
H224  H     H_    0.220436 0.238105 0.200102 0.065317
H225  H     H_    0.268739 0.306193 0.209758 0.083746
H226  H     H_    0.137785 0.303067 0.153603 0.182690
H227  H     H_    0.184786 0.371551 0.163768 0.234633
H228  H     H_    0.267155 0.325319 0.098166 0.273647
H229  H     H_    0.193255 0.330898 0.060122 0.275421
H230  H     H_    0.219716 0.256565 0.088193 0.269146
H231  H     H_    0.740606 0.165296 0.781256 0.133310
H232  H     H_    0.752582 0.234104 0.737431 0.089603
H233  H     H_    0.664955 0.125475 0.705814 0.234053
H234  H     H_    0.530143 0.327491 0.621490 0.088952
H235  H     H_    0.677023 0.194556 0.661038 0.228815
H236  H     H_    0.779996 0.101357 0.697160 0.282195
H237  H     H_    0.788403 0.168618 0.649138 0.284155
H238  H     H_    0.740668 0.104137 0.625759 0.267757
H239  H     H_    0.421781 0.685630 0.084296 0.083171
H240  H     H_    0.464990 0.637973 0.137154 0.075588
H241  H     H_    0.510270 0.763039 0.086059 0.190017
H242  H     H_    0.552701 0.711142 0.134330 0.227092
H243  H     H_    0.550618 0.628880 0.056173 0.289065
H244  H     H_    0.583531 0.699831 0.027114 0.283259
H245  H     H_    0.463989 0.675583 0.376766 0.116129
H246  H     H_    0.504941 0.678917 0.007727 0.271356
H247  H     H_    0.130532 0.173104 0.580757 0.113132
H248  H     H_    0.160824 0.219370 0.519015 0.075039
H249  H     H_    0.032777 0.240223 0.576951 0.221023
H250  H     H_    0.063256 0.278083 0.511416 0.229041
H251  H     H_    0.065558 0.174014 0.458889 0.288808
H252  H     H_    0.989064 0.196717 0.482605 0.279100
H253  H     H_    0.031133 0.138949 0.524918 0.275221
H254  H     H_    0.762354 0.771803 0.184578 0.070526
H255  H     H_    0.704155 0.712356 0.198594 0.088666
H256  H     H_    0.299236 0.439697 0.584834 0.108819
H257  H     H_    0.825962 0.696004 0.128124 0.188617
H258  H     H_    0.770400 0.635544 0.143880 0.230036
H259  H     H_    0.688154 0.695087 0.088377 0.279052
H260  H     H_    0.754618 0.679197 0.041888 0.279915
H261  H     H_    0.743756 0.756056 0.072441 0.273451
H262  H     H_    0.200706 0.752086 0.743689 0.123401
H263  H     H_    0.238212 0.774749 0.675581 0.123518
H264  H     H_    0.193236 0.863600 0.773750 0.201166
H265  H     H_    0.234429 0.885828 0.706865 0.208242
H266  H     H_    0.108539 0.817691 0.709305 0.285693
H267  H     H_    0.701250 0.561795 0.416801 0.123827
H268  H     H_    0.150079 0.842507 0.643300 0.266842
H269  H     H_    0.119859 0.899336 0.694498 0.295949
H270  H     H_    0.616478 0.379367 0.069269 0.101872
H271  H     H_    0.644825 0.422200 0.132395 0.094144
H272  H     H_    0.506912 0.404456 0.097375 0.221675
H273  H     H_    0.535185 0.448725 0.160238 0.190817
H274  H     H_    0.592712 0.519399 0.091493 0.277629
H275  H     H_    0.510771 0.517298 0.074082 0.279431
H276  H     H_    0.565295 0.475074 0.028080 0.280744
H277  H     H_    0.829021 0.220455 0.220897 0.121738
H278  H     H_    0.439414 0.299054 0.415273 0.108187
H279  H     H_    0.757632 0.215139 0.261961 0.112974
H280  H     H_    0.881766 0.261692 0.314964 0.214092
H281  H     H_    0.811488 0.243789 0.354867 0.225698
H282  H     H_    0.889205 0.149452 0.283444 0.272168
H283  H     H_    0.819162 0.132870 0.324961 0.287320
H284  H     H_    0.888451 0.158062 0.363620 0.270662
H285  H     H_    0.371307 0.618887 0.930755 0.093479
H286  H     H_    0.420412 0.637717 0.868311 0.089543
H287  H     H_    0.391475 0.505269 0.914239 0.216254
H288  H     H_    0.441849 0.524887 0.852698 0.200856
N1    N     N_R   0.440580 0.604630 0.559510 -0.048015
N2    N     N_R   0.559420 0.604630 0.559510 -0.045533
N3    N     N_R   0.604630 0.440580 0.440490 -0.047741
N4    N     N_R   0.395370 0.559420 0.559510 -0.048545
N5    N     N_R   0.559420 0.604630 0.440490 -0.047644
N6    N     N_R   0.440580 0.395370 0.559510 -0.042782
N7    N     N_R   0.395370 0.559420 0.440490 -0.040268
N8    N     N_R   0.604630 0.440580 0.559510 -0.043218
N9    N     N_R   0.940580 0.104630 0.059510 -0.043724
N10   N     N_R   0.059420 0.895370 0.940490 -0.047181
N11   N     N_R   0.104630 0.059420 0.059510 -0.048210
N12   N     N_R   0.559420 0.395370 0.440490 -0.048883
N13   N     N_R   0.895370 0.940580 0.940490 -0.049675
N14   N     N_R   0.059420 0.895370 0.059510 -0.049787
N15   N     N_R   0.940580 0.104630 0.940490 -0.054277
N16   N     N_R   0.895370 0.940580 0.059510 -0.044722
N17   N     N_R   0.104630 0.059420 0.940490 -0.050568
N18   N     N_R   0.940580 0.895370 0.940490 -0.045555
N19   N     N_R   0.059420 0.104630 0.059510 -0.049199
N20   N     N_R   0.104630 0.940580 0.940490 -0.043100
N21   N     N_R   0.895370 0.059420 0.059510 -0.048066
N22   N     N_R   0.059420 0.104630 0.940490 -0.047967
N23   N     N_R   0.604630 0.559420 0.559510 -0.047653
N24   N     N_R   0.940580 0.895370 0.059510 -0.050243
N25   N     N_R   0.895370 0.059420 0.940490 -0.048817
N26   N     N_R   0.104630 0.940580 0.059510 -0.054724
N27   N     N_R   0.395370 0.440580 0.440490 -0.042926
N28   N     N_R   0.559420 0.395370 0.559510 -0.040133
N29   N     N_R   0.440580 0.604630 0.440490 -0.043144
N30   N     N_R   0.395370 0.440580 0.559510 -0.045219
N31   N     N_R   0.604630 0.559420 0.440490 -0.044941
N32   N     N_R   0.440580 0.395370 0.440490 -0.045019
Ni1   Ni    Ni4+2 0.500000 0.603690 0.500000 0.226814
Ni2   Ni    Ni4+2 0.500000 0.396310 0.500000 0.221716
Ni3   Ni    Ni4+2 0.603690 0.500000 0.500000 0.225284
Ni4   Ni    Ni4+2 0.396310 0.500000 0.500000 0.221753
Ni5   Ni    Ni4+2 0.000000 0.103690 0.000000 0.241216
Ni6   Ni    Ni4+2 1.000000 0.896310 0.000000 0.238158
Ni7   Ni    Ni4+2 0.103690 0.000000 0.000000 0.241140
Ni8   Ni    Ni4+2 0.896310 0.000000 0.000000 0.238046
O1    O     O_3   0.848921 0.738029 0.606129 -0.572873
O2    O     O_3   0.334529 0.591090 0.850976 -0.641597
O3    O     O_3   0.734481 0.850854 0.392186 -0.575167
O4    O     O_3   0.300643 0.188023 0.737848 -0.644169
O5    O     O_3   0.222567 0.663441 0.220789 -0.600860
O6    O     O_3   0.724128 0.432547 0.832975 -0.621087
O7    O     O_3   0.262408 0.148671 0.405881 -0.580279
O8    O     O_3   0.698003 0.794204 0.756208 -0.640658
O9    O     O_3   0.280478 0.123822 0.288465 -0.580807
O10   O     O_3   0.753938 0.900513 0.675403 -0.657537
O11   O     O_3   0.255796 0.650290 0.097659 -0.614292
O12   O     O_3   0.187586 0.301838 0.262071 -0.639022
O13   O     O_3   0.825709 0.344932 0.801054 -0.644258
O14   O     O_3   0.730055 0.894665 0.284423 -0.573177
O15   O     O_3   0.218064 0.090923 0.656952 -0.662559
O16   O     O_3   0.781789 0.364390 0.112395 -0.617533
O17   O     O_3   0.196100 0.642530 0.829094 -0.629595
O18   O     O_3   0.362845 0.778517 0.885696 -0.623675
O19   O     O_3   0.645840 0.199490 0.174544 -0.627993
O20   O     O_3   0.122627 0.281781 0.713119 -0.576491
O21   O     O_3   0.896817 0.753231 0.324311 -0.655896
O22   O     O_3   0.650509 0.256605 0.903486 -0.615996
O23   O     O_3   0.664132 0.222295 0.779188 -0.602196
O24   O     O_3   0.344101 0.825962 0.199688 -0.643765
O25   O     O_3   0.888756 0.728565 0.715809 -0.574216
O26   O     O_3   0.089279 0.221672 0.340255 -0.661707
O27   O     O_2   0.814832 0.657500 0.526509 -0.540506
O28   O     O_2   0.229741 0.416570 0.279750 -0.541352
O29   O     O_2   0.566996 0.216820 0.704208 -0.545132
O30   O     O_2   0.517866 0.696623 0.250003 -0.578578
O31   O     O_2   0.182472 0.352880 0.524518 -0.545923
O32   O     O_2   0.751303 0.586055 0.260208 -0.574817
O33   O     O_2   0.341429 0.736272 0.597207 -0.578632
O34   O     O_3   0.432271 0.725187 0.167329 -0.621365
O35   O     O_2   0.500471 0.345121 0.226113 -0.577445
O36   O     O_2   0.736748 0.338942 0.403696 -0.581060
O37   O     O_2   0.349744 0.497681 0.773792 -0.576886
O38   O     O_2   0.650399 0.816307 0.469239 -0.541089
O39   O     O_2   0.415933 0.228277 0.719156 -0.541049
O40   O     O_2   0.217628 0.565781 0.295087 -0.543381
O41   O     O_2   0.696319 0.517808 0.749513 -0.580859
O42   O     O_2   0.347601 0.183924 0.479320 -0.541459
O43   O     O_2   0.583560 0.752488 0.737300 -0.573471
O44   O     O_2   0.271210 0.027252 0.215887 -0.607756
O45   O     O_3   0.147103 0.266293 0.598707 -0.579836
O46   O     O_2   0.881039 0.011923 0.745639 -0.518829
O47   O     O_2   0.137654 0.751354 0.005946 -0.625357
O48   O     O_2   0.884783 0.168838 0.783024 -0.576577
O49   O     O_2   0.776277 0.005772 0.261816 -0.543718
O50   O     O_2   0.096564 0.999266 0.756709 -0.564391
O51   O     O_2   0.870999 0.257314 0.002971 -0.621158
O52   O     O_2   0.083317 0.696989 0.824305 -0.559078
O53   O     O_2   0.258417 0.870213 0.995018 -0.620433
O54   O     O_2   0.700193 0.086159 0.180263 -0.560698
O55   O     O_2   0.025575 0.270744 0.784344 -0.609276
O56   O     O_3   0.790926 0.701134 0.241489 -0.641599
O57   O     O_2   0.012650 0.877127 0.253807 -0.517841
O58   O     O_2   0.751057 0.137383 0.993929 -0.622278
O59   O     O_2   0.168045 0.885084 0.216609 -0.573484
O60   O     O_2   0.000115 0.767465 0.744135 -0.546220
O61   O     O_2   0.999570 0.094343 0.249588 -0.561142
O62   O     O_3   0.290407 0.787871 0.753948 -0.655917
O63   O     O_3   0.595094 0.337806 0.148804 -0.644332
O64   O     O_3   0.795182 0.305550 0.244866 -0.647857

loop_
_geom_bond_atom_site_label_1
_geom_bond_atom_site_label_2
_ccdc_geom_bond_type
C174  O42   D    
C5    O15   S    
C115  H74   S    
C255  O23   S    
C126  C127  S    
C21   C163  S    
C185  O53   D    
C55   C56   S    
C154  H167  S    
C12   O22   S    
C100  H41   S    
C222  C242  S    
C78   O64   S    
C152  O25   S    
C251  H267  S    
C142  H138  S    
C83   H287  S    
C14   O24   S    
C37   C178  S    
C91   H19   S    
C97   H34   S    
C182  O50   D    
C108  O10   S    
C208  C260  A    
C192  H209  S    
C104  H51   S    
C132  H115  S    
C193  O61   D    
C133  H118  S    
C148  H152  S    
C135  H135  S    
C106  C107  S    
C143  C144  S    
C128  H104  S    
C139  O20   S    
C108  C109  S    
C270  O9    S    
C7    C42   A    
C183  H200  S    
C35   C243  A    
C176  O44   D    
C2    N2    A    
C25   C260  A    
C132  O18   S    
C102  H44   S    
C6    C215  A    
C88   O4    S    
C223  C243  S    
C98   H38   S    
C126  O16   S    
C134  H119  S    
C232  C252  S    
C37   C272  A    
C40   C232  A    
C114  H70   S    
N23   Ni3   S    
C196  C237  A    
C101  H101  S    
C240  N30   A    
C59   C60   S    
C84   H4    S    
C158  H175  S    
N15   Ni5   S    
C135  N15   A    
C78   H279  S    
C157  N17   A    
C101  C246  A    
N17   Ni7   S    
C218  N28   A    
C175  H193  S    
C85   O3    S    
C29   C222  A    
N19   Ni5   S    
C140  C141  S    
C109  H63   S    
C129  H106  S    
C172  O40   D    
C92   H21   S    
C127  H100  S    
C64   H244  S    
C157  H157  S    
C108  H61   S    
C188  H206  S    
C256  O34   S    
N2    N23   A    
C153  H163  S    
C61   H238  S    
C2    H2    S    
C113  N13   A    
C204  C257  A    
N29   Ni1   S    
C140  H132  S    
C134  H121  S    
C49   C228  A    
C146  H146  S    
C139  H131  S    
C48   C189  S    
C110  H66   S    
N21   Ni8   S    
C13   C236  A    
C19   C255  A    
C115  H72   S    
C63   H241  S    
C55   H224  S    
N28   Ni2   S    
C160  H177  S    
C154  H165  S    
N3    Ni3   S    
C62   O34   S    
C100  H43   S    
N8    Ni3   S    
C31   C220  A    
C152  H161  S    
C53   H219  S    
C97   H36   S    
C103  H48   S    
C90   N10   A    
C69   H254  S    
C80   H280  S    
C76   H272  S    
C72   C73   S    
C8    C216  A    
C43   C234  A    
C16   O26   S    
C71   H259  S    
C139  C140  S    
C205  C264  A    
C33   C217  A    
C25   C166  S    
C9    O19   S    
C131  H114  S    
C206  C263  A    
C186  O54   D    
C82   H285  S    
C156  C158  S    
C130  C131  S    
C74   H268  S    
C198  C249  A    
C21   C257  A    
C65   H247  S    
C41   C233  A    
C1    C235  A    
C136  H123  S    
C25   C225  A    
C69   C70   S    
C151  H159  S    
C149  H154  S    
C88   C89   S    
C90   H90   S    
C98   C99   S    
C158  H173  S    
C155  C156  S    
N14   N26   A    
C78   H277  S    
C187  H205  S    
C74   H269  S    
C94   H28   S    
N7    Ni4   S    
C109  C110  S    
C1    N1    A    
N16   Ni8   S    
C65   O45   S    
C79   H79   S    
C105  O9    S    
C35   N5    A    
C95   C96   S    
C150  H155  S    
C16   C51   A    
C104  H49   S    
C173  H191  S    
C221  C241  S    
C53   C54   S    
C18   C254  A    
C144  H143  S    
C170  H187  S    
C229  N29   A    
C14   C211  A    
C267  O6    S    
C16   C209  A    
C224  C235  S    
C234  C245  S    
N7    N29   A    
C78   C80   S    
C43   C185  S    
C26   C225  A    
N1    Ni1   S    
N17   N22   A    
C130  H109  S    
C204  C214  S    
C148  H150  S    
C120  H86   S    
C126  H99   S    
C137  H125  S    
C87   H12   S    
C110  H64   S    
C55   H225  S    
C207  C238  A    
C23   C165  S    
N13   N18   A    
C124  H124  S    
C37   C228  A    
C254  O12   S    
C128  H105  S    
C54   H221  S    
C155  H170  S    
C4    O14   S    
C77   H275  S    
C105  H52   S    
C61   H237  S    
C85   H7    S    
C121  H87   S    
C86   H8    S    
C116  O13   S    
C89   C91   S    
C132  C133  S    
N27   N32   A    
C117  H77   S    
C7    C216  A    
C240  H256  S    
C198  N25   A    
C66   C67   S    
C131  H110  S    
C96   C97   S    
C116  H75   S    
C67   H252  S    
C203  C211  S    
C99   H40   S    
C10   C45   A    
C165  O33   D    
N10   Ni6   S    
C201  C209  S    
C24   H24   S    
N11   Ni7   S    
C205  C258  A    
C167  H185  S    
C166  H184  S    
C26   C167  S    
C112  H112  S    
C243  C251  A    
C31   C267  A    
C149  O24   S    
C74   H266  S    
C51   C193  S    
C75   O63   S    
C45   C187  S    
C79   N9    A    
C42   C184  S    
C189  H207  S    
C113  C247  A    
C94   H26   S    
C111  H69   S    
C124  C248  A    
C125  H97   S    
N13   Ni8   S    
C22   C164  S    
C83   C84   S    
C125  H95   S    
C190  N20   A    
C106  H54   S    
C20   C162  S    
C195  C252  A    
C46   N6    A    
C51   C226  A    
C122  H91   S    
C95   H29   S    
C251  N31   A    
C108  H60   S    
C39   C181  S    
C83   H288  S    
C29   C171  S    
C62   H240  S    
C30   C172  S    
C113  H113  S    
C199  C248  A    
C196  N23   A    
C191  O59   D    
C209  C270  A    
C96   H31   S    
C193  H210  S    
C208  C215  S    
C138  H127  S    
C118  H81   S    
C164  O32   D    
C81   H284  S    
C170  O38   D    
C138  H129  S    
C217  C237  S    
C77   H274  S    
C52   C53   S    
C129  C130  S    
C89   H17   S    
C199  H215  S    
C180  H197  S    
C85   H6    S    
C225  C236  S    
C190  H190  S    
C52   H216  S    
C129  O17   S    
C136  C137  S    
C168  H168  S    
C203  C266  A    
C100  H42   S    
C189  O58   D    
C2    C237  A    
C114  C115  S    
C181  H198  S    
C228  C248  S    
C142  H139  S    
C36   C227  A    
C97   H33   S    
C82   O2    S    
C147  H148  S    
C206  C216  S    
C98   O7    S    
C87   H10   S    
C132  H116  S    
C70   H257  S    
C117  C118  S    
C174  H192  S    
C177  H195  S    
C257  O45   S    
C56   C58   S    
C143  H141  S    
C121  H89   S    
N16   N24   A    
C102  C103  S    
C17   C159  S    
C194  N21   A    
C18   C160  S    
C188  O57   D    
C102  O8    S    
C63   C64   S    
C57   N7    A    
C102  H45   S    
C152  C153  S    
C136  H122  S    
C36   C271  A    
C150  C151  S    
C134  H120  S    
N3    N12   A    
C96   H32   S    
N9    N21   A    
C81   H282  S    
C263  O2    S    
C114  H71   S    
C28   C170  S    
C206  C259  A    
C11   O21   S    
C29   C265  A    
C73   C74   S    
C11   C47   A    
C8    C43   A    
C12   C48   A    
C123  H94   S    
C93   H25   S    
C143  H140  S    
C26   C261  A    
C204  C265  A    
C22   C258  A    
C69   O56   S    
C58   H228  S    
C66   H249  S    
C80   H281  S    
C159  O27   D    
C34   C226  A    
C56   H227  S    
C119  H84   S    
C15   C210  A    
C130  H108  S    
C35   H35   S    
C109  H62   S    
C123  C125  S    
C69   H255  S    
C144  H142  S    
C92   H22   S    
C3    C212  A    
C93   H23   S    
C107  H58   S    
N5    Ni1   S    
C19   C161  S    
C156  H171  S    
C73   H265  S    
N4    Ni4   S    
C260  O63   S    
C57   C241  A    
C185  H203  S    
C99   H39   S    
C58   H229  S    
C115  H73   S    
C147  C148  S    
C42   C234  A    
C9    C44   A    
C197  N24   A    
C20   C221  A    
C15   O25   S    
C272  O11   S    
C20   C256  A    
C70   C71   S    
C45   C232  A    
C229  H245  S    
C230  C249  S    
C50   C192  S    
C72   H263  S    
C3    O13   S    
C124  N14   A    
C205  C213  S    
C127  H102  S    
C179  N19   A    
C50   C227  A    
C218  C239  A    
C135  C249  A    
C61   H236  S    
C154  H166  S    
C75   H270  S    
C145  C147  S    
C176  H194  S    
C161  H178  S    
C226  C246  S    
C30   C221  A    
C40   C182  S    
C178  O47   D    
C152  H162  S    
C200  C269  A    
C131  H111  S    
C91   H20   S    
C103  H47   S    
C21   C222  A    
C67   H253  S    
C136  O19   S    
C38   C180  S    
C177  O46   D    
C148  H151  S    
C86   C87   S    
C10   C214  A    
N15   N25   A    
C85   C86   S    
C128  H103  S    
C32   C174  S    
C53   H218  S    
C200  C210  S    
C187  O55   D    
C60   C61   S    
C253  O1    S    
C196  H212  S    
N25   Ni8   S    
N18   Ni6   S    
C27   C169  S    
C229  C241  A    
C233  C244  S    
C202  C255  A    
N1    N4    A    
C27   C263  A    
C98   H37   S    
C27   C224  A    
C183  O51   D    
C268  O7    S    
C179  H179  S    
C79   C244  A    
C192  O60   D    
C59   H232  S    
C46   H46   S    
C149  H153  S    
N10   N20   A    
C172  H189  S    
C72   O62   S    
C158  H174  S    
C211  C272  A    
C64   H246  S    
C88   H15   S    
C95   O6    S    
C49   C191  S    
C46   C242  A    
C118  H80   S    
C127  C128  S    
C155  O26   S    
N6    Ni2   S    
C179  C246  A    
C203  C256  A    
C137  C138  S    
C4    C213  A    
C147  H149  S    
C150  H156  S    
C202  C212  S    
C68   C239  A    
C142  O21   S    
N24   Ni6   S    
C119  C120  S    
C129  H107  S    
C34   C270  A    
C144  H144  S    
C105  C106  S    
C64   H243  S    
C184  H202  S    
C105  H53   S    
C153  H164  S    
C112  C236  A    
C149  C150  S    
N31   Ni3   S    
C122  O15   S    
C218  H234  S    
C60   H233  S    
C197  C250  A    
C5    C214  A    
C191  H208  S    
C92   C93   S    
N9    Ni5   S    
C141  H134  S    
C111  C114  S    
C180  O48   D    
C87   H11   S    
C110  H65   S    
C208  C261  A    
C65   H248  S    
C82   H286  S    
C54   H222  S    
C89   H16   S    
C82   C83   S    
C155  H169  S    
C84   H3    S    
C103  C104  S    
C151  H158  S    
C142  C143  S    
C41   C183  S    
C271  O10   S    
C266  O5    S    
C7    O17   S    
C44   C233  A    
C186  H204  S    
C201  C254  A    
N2    Ni1   S    
C44   C186  S    
N6    N30   A    
C24   N4    A    
C133  H117  S    
C90   C245  A    
C91   H18   S    
C93   C94   S    
N8    N28   A    
C116  H76   S    
C67   H251  S    
C262  N32   A    
C166  O35   D    
C75   C76   S    
C71   H260  S    
N22   Ni5   S    
C178  H196  S    
C38   C230  A    
C264  O3    S    
C168  N18   A    
N14   Ni6   S    
C17   C253  A    
C76   H273  S    
C62   C63   S    
C194  C244  A    
C146  C250  A    
C219  C238  S    
N5    N31   A    
C57   H57   S    
C207  N27   A    
C182  H199  S    
N27   Ni4   S    
C14   C49   A    
C47   C231  A    
C169  O37   D    
C116  C117  S    
C15   C50   A    
C171  O39   D    
C56   H226  S    
C259  O62   S    
C104  H50   S    
C151  H160  S    
N11   N19   A    
N12   Ni2   S    
C159  H176  S    
C95   H30   S    
C167  O36   D    
C3    C38   A    
C210  C271  A    
C6    C41   A    
C55   O12   S    
C59   O23   S    
C220  C239  S    
C173  O41   D    
C30   C266  A    
C201  C268  A    
C197  H213  S    
C94   H27   S    
C111  O11   S    
C1    H1    S    
C195  H211  S    
C200  C253  A    
C48   C230  A    
C195  N22   A    
C10   O20   S    
C163  H181  S    
C23   C259  A    
C13   N3    A    
C118  H82   S    
C141  H137  S    
C52   O1    S    
C107  H56   S    
C145  H145  S    
C181  O49   D    
C18   C219  A    
C72   H262  S    
C184  O52   D    
C34   C176  S    
C76   C77   S    
C12   C212  A    
N32   Ni2   S    
C75   H271  S    
C106  H55   S    
C59   H231  S    
C119  O14   S    
C28   C264  A    
C227  C247  S    
C140  H133  S    
C141  H136  S    
C120  H85   S    
C126  H98   S    
C199  N26   A    
C137  H126  S    
C81   H283  S    
C39   C231  A    
C70   H258  S    
C88   H14   S    
C258  O56   S    
C122  H92   S    
C99   C100  S    
C4    C39   A    
C54   H220  S    
C84   H5    S    
C168  C247  A    
C77   H276  S    
C198  H214  S    
C240  C242  A    
C9    C215  A    
C121  H88   S    
C71   H261  S    
C107  H59   S    
C146  N16   A    
C117  H78   S    
C63   H242  S    
C261  O64   S    
C11   C213  A    
C6    O16   S    
C162  H180  S    
N26   Ni7   S    
C111  H67   S    
C157  C252  A    
C17   C217  A    
C202  C267  A    
C13   H13   S    
C171  H188  S    
C190  C245  A    
C33   C269  A    
C169  H186  S    
C101  N11   A    
C36   C177  S    
C175  O43   D    
C80   C81   S    
C123  H93   S    
C8    O18   S    
C162  O30   D    
C60   H235  S    
C262  H278  S    
C161  O29   D    
C19   C220  A    
C22   C223  A    
C163  O31   D    
C66   H250  S    
C207  H223  S    
C145  O22   S    
C165  H183  S    
C47   C188  S    
C119  H83   S    
C24   C235  A    
C231  C250  S    
C133  C134  S    
C125  H96   S    
C28   C223  A    
C112  N12   A    
C265  O4    S    
C92   O5    S    
C86   H9    S    
C164  H182  S    
C52   H217  S    
C32   C268  A    
C194  H201  S    
C156  H172  S    
C73   H264  S    
C62   H239  S    
C33   C175  S    
C32   C219  A    
C238  C262  A    
C269  O8    S    
C68   H68   S    
N30   Ni4   S    
C58   H230  S    
C68   N8    A    
C23   C224  A    
C31   C173  S    
C65   C66   S    
C122  C123  S    
N20   Ni7   S    
C120  C121  S    
C138  H128  S    
C145  H147  S    
C153  C154  S    
C5    C40   A    
C139  H130  S    
C160  O28   D    
