data_mof_unit_578.cif
_audit_creation_date              2013-03-05T15:41:01-0500
_audit_creation_method            fapswitch 2.2
_symmetry_space_group_name_H-M    P1
_symmetry_Int_Tables_number       1
_space_group_crystal_system       triclinic
_cell_length_a                    28.047104
_cell_length_b                    18.392093
_cell_length_c                    17.025194
_cell_angle_alpha                 90.047895
_cell_angle_beta                  60.877585
_cell_angle_gamma                 89.782172
_cell_volume                      7672.01920017

loop_
_atom_site_label
_atom_site_type_symbol
_atom_site_description
_atom_site_fract_x
_atom_site_fract_y
_atom_site_fract_z
_atom_type_partial_charge
O1    O     O_R   0.746490 0.236330 0.638080 -0.675646
O2    O     O_R   0.253510 0.763670 0.361920 -0.660773
O3    O     O_R   0.253510 0.236330 0.361920 -0.615754
O4    O     O_R   0.746490 0.763670 0.638080 -0.631836
O5    O     O_R   0.246490 0.736330 0.638080 -0.624272
O6    O     O_R   0.753510 0.263670 0.361920 -0.674886
O7    O     O_R   0.753510 0.736330 0.361920 -0.682352
O8    O     O_R   0.246490 0.263670 0.638080 -0.641499
O9    O     O_R   0.674170 0.186160 0.516270 -0.633423
O10   O     O_R   0.325830 0.813840 0.483730 -0.655134
O11   O     O_R   0.325830 0.186160 0.483730 -0.648643
O12   O     O_R   0.674170 0.813840 0.516270 -0.631242
O13   O     O_R   0.174170 0.686160 0.516270 -0.614590
O14   O     O_R   0.825830 0.313840 0.483730 -0.622881
O15   O     O_R   0.825830 0.686160 0.483730 -0.623383
O16   O     O_R   0.174170 0.313840 0.516270 -0.645821
O17   O     O_R   0.739960 0.127620 0.525000 -0.626303
O18   O     O_R   0.260040 0.872380 0.475000 -0.621081
O19   O     O_R   0.260040 0.127620 0.475000 -0.614771
O20   O     O_R   0.739960 0.872380 0.525000 -0.628832
O21   O     O_R   0.239960 0.627620 0.525000 -0.627238
O22   O     O_R   0.760040 0.372380 0.475000 -0.631794
O23   O     O_R   0.760040 0.627620 0.475000 -0.620892
O24   O     O_R   0.239960 0.372380 0.525000 -0.616521
O25   O     O_R   0.680700 0.294870 0.629350 -0.602819
O26   O     O_R   0.319300 0.705130 0.370650 -0.636838
O27   O     O_R   0.319300 0.294870 0.370650 -0.637474
O28   O     O_R   0.680700 0.705130 0.629350 -0.598101
O29   O     O_R   0.180700 0.794870 0.629350 -0.606236
O30   O     O_R   0.819300 0.205130 0.370650 -0.600289
O31   O     O_R   0.819300 0.794870 0.370650 -0.625881
O32   O     O_R   0.180700 0.205130 0.629350 -0.627995
C1    C     C_R   0.700978 0.266490 0.677136 0.886259
C2    C     C_R   0.297206 0.729181 0.323517 0.877279
C3    C     C_R   0.294221 0.277414 0.326743 0.897897
C4    C     C_R   0.701099 0.733626 0.676965 0.919749
C5    C     C_R   0.206099 0.777733 0.672721 0.923118
C6    C     C_R   0.798959 0.233748 0.322889 0.887990
C7    C     C_R   0.798815 0.766889 0.322907 0.843812
C8    C     C_R   0.205309 0.224024 0.674268 0.890740
C9    C     C_R   0.696726 0.128230 0.515874 0.915475
C10   C     C_R   0.309158 0.870252 0.462595 0.872634
C11   C     C_R   0.309042 0.129628 0.462955 0.889288
C12   C     C_R   0.697272 0.871670 0.514345 0.911931
C13   C     C_R   0.196441 0.627308 0.518338 0.943114
C14   C     C_R   0.802582 0.372551 0.484415 0.900943
C15   C     C_R   0.809364 0.629664 0.462349 0.888665
C16   C     C_R   0.190347 0.369999 0.538607 0.881660
Zn1   Zn    Zn3+2 0.792340 0.208750 0.507670 0.984617
Zn2   Zn    Zn3+2 0.207660 0.791250 0.492330 1.000246
Zn3   Zn    Zn3+2 0.207660 0.208750 0.492330 1.001669
Zn4   Zn    Zn3+2 0.792340 0.791250 0.507670 0.993862
Zn5   Zn    Zn3+2 0.292340 0.708750 0.507670 0.978520
Zn6   Zn    Zn3+2 0.707660 0.291250 0.492330 0.969468
Zn7   Zn    Zn3+2 0.707660 0.708750 0.492330 0.970580
Zn8   Zn    Zn3+2 0.292340 0.291250 0.507670 0.961724
C17   C     C_R   0.568164 0.131989 0.439121 0.090718
C18   C     C_R   0.477610 0.867247 0.409655 0.076358
C19   C     C_R   0.474554 0.132625 0.416950 0.078473
C20   C     C_R   0.572989 0.868440 0.427868 0.083791
C21   C     C_R   0.070960 0.616615 0.442400 0.051220
C22   C     C_R   0.916880 0.390927 0.589188 0.091360
C23   C     C_R   0.976889 0.619615 0.422194 0.088021
C24   C     C_R   0.014491 0.385020 0.603029 0.083290
C25   C     C_R   0.543785 0.198566 0.436605 0.129637
C26   C     C_R   0.503527 0.801164 0.410021 0.076961
C27   C     C_R   0.497308 0.199023 0.424740 0.106328
C28   C     C_R   0.551626 0.801847 0.417242 0.070070
C29   C     C_R   0.057091 0.680230 0.411503 0.028162
C30   C     C_R   0.924940 0.334915 0.638900 0.064678
C31   C     C_R   0.011379 0.680844 0.398112 0.068456
C32   C     C_R   0.973449 0.331539 0.644710 0.038805
C33   C     C_R   0.496086 0.066323 0.428314 -0.024964
C34   C     C_R   0.544759 0.933618 0.434666 -0.023681
C35   C     C_R   0.542589 0.066206 0.439694 -0.023374
C36   C     C_R   0.497865 0.933311 0.424114 -0.029372
C37   C     C_R   0.986053 0.560896 0.467536 -0.024263
C38   C     C_R   0.005584 0.442192 0.555374 -0.025892
C39   C     C_R   0.033198 0.559201 0.477111 -0.006100
C40   C     C_R   0.957629 0.444485 0.547216 -0.023947
C41   C     C_R   0.949060 0.502744 0.500758 -0.000583
C42   C     C_R   0.043587 0.499142 0.518885 -0.002167
C43   C     C_R   0.472857 0.999739 0.423322 0.005350
C44   C     C_R   0.565874 0.999950 0.445543 0.006011
C45   C     C_R   0.866700 0.444557 0.518454 0.007800
C46   C     C_R   0.127486 0.556649 0.495587 0.051646
C47   C     C_R   0.104216 0.437115 0.563823 0.015305
C48   C     C_R   0.892581 0.562418 0.445794 0.021227
C49   C     C_R   0.399370 0.933297 0.417662 0.001355
C50   C     C_R   0.633608 0.066095 0.468672 0.004122
C51   C     C_R   0.635137 0.934386 0.465409 0.010820
C52   C     C_R   0.398932 0.066093 0.418518 0.000454
C53   C     C_R   0.828337 0.439555 0.486638 -0.110820
C54   C     C_R   0.169156 0.560411 0.519876 -0.098401
C55   C     C_R   0.156751 0.435496 0.558339 -0.128080
C56   C     C_R   0.842157 0.563776 0.445091 -0.134726
C57   C     C_R   0.344238 0.934445 0.435052 -0.118605
C58   C     C_R   0.672777 0.064343 0.500208 -0.106048
C59   C     C_R   0.673564 0.935783 0.498386 -0.106081
C60   C     C_R   0.344051 0.065164 0.435389 -0.121884
C61   C     C_R   0.815626 0.499785 0.452399 -0.261178
C62   C     C_R   0.183716 0.499502 0.549914 -0.275770
C63   C     C_R   0.318561 0.999892 0.440478 -0.253356
C64   C     C_R   0.689263 0.999946 0.518999 -0.287082
H1    H     H_    0.781880 0.498600 0.438218 0.193866
H2    H     H_    0.219253 0.500346 0.559412 0.199606
H3    H     H_    0.276323 0.000028 0.455420 0.201572
H4    H     H_    0.716681 0.999817 0.547142 0.193900
C65   C     C_R   0.903084 0.503196 0.488161 0.029642
C66   C     C_R   0.091327 0.497684 0.526731 0.004952
C67   C     C_R   0.423617 0.999669 0.420312 0.032857
C68   C     C_R   0.610293 0.000093 0.462823 0.025526
C69   C     C_R   0.063816 0.383350 0.608554 0.088412
C70   C     C_R   0.932395 0.617036 0.404973 0.089701
C71   C     C_R   0.868993 0.395159 0.580601 0.087987
C72   C     C_R   0.121310 0.609273 0.441316 0.088829
C73   C     C_R   0.623018 0.871775 0.428915 0.104838
C74   C     C_R   0.430442 0.130581 0.398877 0.100946
C75   C     C_R   0.431804 0.869054 0.395505 0.099547
C76   C     C_R   0.618960 0.129625 0.437191 0.110354
C77   C     C_R   0.711461 0.250649 0.963476 -0.009905
C78   C     C_R   0.290598 0.752923 0.032373 -0.008049
C79   C     C_R   0.279846 0.266793 0.048126 -0.002602
C80   C     C_R   0.722960 0.730713 0.951516 -0.011464
C81   C     C_R   0.229858 0.785780 0.942673 -0.003373
C82   C     C_R   0.775371 0.228421 0.049626 -0.011005
C83   C     C_R   0.787139 0.752828 0.037254 -0.010274
C84   C     C_R   0.220638 0.229650 0.957053 -0.004199
C85   C     C_R   0.759723 0.208134 0.921427 0.136988
C86   C     C_R   0.235996 0.779079 0.079820 0.142801
C87   C     C_R   0.222368 0.255491 0.097519 0.117715
C88   C     C_R   0.771301 0.772482 0.909052 0.121872
C89   C     C_R   0.286399 0.767189 0.891853 0.115557
C90   C     C_R   0.727314 0.271207 0.091618 0.132585
C91   C     C_R   0.738186 0.712086 0.080266 0.139591
C92   C     C_R   0.277532 0.245512 0.908034 0.127073
C93   C     C_R   0.789811 0.192989 0.967094 -0.092977
C94   C     C_R   0.205982 0.797764 0.035618 -0.092049
C95   C     C_R   0.193139 0.230370 0.052598 -0.105958
C96   C     C_R   0.806586 0.777375 0.948006 -0.105247
C97   C     C_R   0.316711 0.745930 0.937257 -0.117242
C98   C     C_R   0.692185 0.276292 0.052375 -0.110006
C99   C     C_R   0.707796 0.697014 0.035063 -0.086039
C100  C     C_R   0.308312 0.258260 0.953749 -0.101777
C101  C     C_R   0.632980 0.306914 0.959471 -0.092053
C102  C     C_R   0.370165 0.699154 0.037899 -0.091876
C103  C     C_R   0.364492 0.307200 0.046284 -0.098516
C104  C     C_R   0.641104 0.681321 0.952726 -0.085800
C105  C     C_R   0.142238 0.818456 0.949490 -0.073281
C106  C     C_R   0.857657 0.179225 0.047557 -0.076101
C107  C     C_R   0.865993 0.808137 0.040797 -0.085003
C108  C     C_R   0.136389 0.190028 0.956293 -0.084844
C109  C     C_R   0.610532 0.336342 0.906275 -0.046631
C110  C     C_R   0.391414 0.666583 0.091790 -0.054802
C111  C     C_R   0.388790 0.337653 0.096078 -0.046317
C112  C     C_R   0.614091 0.659243 0.903618 -0.052498
C113  C     C_R   0.114046 0.840363 0.902379 -0.052236
C114  C     C_R   0.885647 0.159046 0.095943 -0.059175
C115  C     C_R   0.888702 0.837234 0.093950 -0.052742
C116  C     C_R   0.112104 0.161788 0.905027 -0.053209
C117  C     C_R   0.631375 0.316569 0.817470 -0.235645
C118  C     C_R   0.368950 0.683668 0.181693 -0.267970
C119  C     C_R   0.366496 0.322894 0.186288 -0.248426
C120  C     C_R   0.632297 0.683114 0.817071 -0.232274
C121  C     C_R   0.134512 0.821830 0.813805 -0.242885
C122  C     C_R   0.867979 0.184009 0.181991 -0.245639
C123  C     C_R   0.867979 0.817361 0.182664 -0.260116
C124  C     C_R   0.134369 0.177836 0.815250 -0.270222
H5    H     H_    0.613555 0.339120 0.778719 0.207413
H6    H     H_    0.387869 0.663276 0.219799 0.202376
H7    H     H_    0.388551 0.336962 0.221706 0.210868
H8    H     H_    0.612109 0.664640 0.780203 0.211693
H9    H     H_    0.110353 0.831680 0.780787 0.216053
H10   H     H_    0.888931 0.166705 0.218179 0.211954
H11   H     H_    0.885961 0.839421 0.221335 0.204255
H12   H     H_    0.112707 0.163089 0.779391 0.205290
C125  C     C_R   0.677110 0.273284 0.775387 -0.126908
C126  C     C_R   0.319776 0.719593 0.225798 -0.120137
C127  C     C_R   0.314210 0.296584 0.232995 -0.138401
C128  C     C_R   0.678450 0.725296 0.774530 -0.137592
C129  C     C_R   0.187573 0.798005 0.765084 -0.142576
C130  C     C_R   0.821255 0.225342 0.225260 -0.130954
C131  C     C_R   0.822307 0.774380 0.224718 -0.120743
C132  C     C_R   0.185874 0.206555 0.769122 -0.128577
C133  C     C_R   0.702808 0.246120 0.825448 0.116039
C134  C     C_R   0.291819 0.740712 0.176936 0.123367
C135  C     C_R   0.282421 0.288808 0.188708 0.099445
C136  C     C_R   0.706579 0.748390 0.822425 0.108935
C137  C     C_R   0.221812 0.793422 0.805592 0.095066
C138  C     C_R   0.792446 0.247595 0.177934 0.110279
C139  C     C_R   0.796229 0.748179 0.174910 0.115069
C140  C     C_R   0.217393 0.217440 0.814421 0.103949
C141  C     C_R   0.682549 0.268141 0.916027 0.030493
C142  C     C_R   0.317805 0.731276 0.082022 0.025650
C143  C     C_R   0.309012 0.287044 0.094053 0.030088
C144  C     C_R   0.690550 0.719618 0.908381 0.024991
C145  C     C_R   0.197937 0.798563 0.899405 0.028265
C146  C     C_R   0.808174 0.217946 0.092230 0.022708
C147  C     C_R   0.816324 0.770022 0.084412 0.028327
C148  C     C_R   0.191390 0.212768 0.909563 0.028283
C149  C     C_R   0.606534 0.311444 0.054853 0.237609
C150  C     C_R   0.398664 0.699560 0.942466 0.229197
C151  C     C_R   0.394013 0.291816 0.953147 0.231041
C152  C     C_R   0.621782 0.664326 0.044127 0.253939
C153  C     C_R   0.118069 0.822730 0.043770 0.235006
C154  C     C_R   0.875652 0.158958 0.957130 0.247880
C155  C     C_R   0.892342 0.812034 0.945321 0.238380
C156  C     C_R   0.108438 0.193637 0.051527 0.229069
C157  C     C_R   0.636934 0.300334 0.100450 0.235873
C158  C     C_R   0.371310 0.717182 0.893227 0.209063
C159  C     C_R   0.366764 0.261667 0.908993 0.186737
C160  C     C_R   0.660351 0.652942 0.072858 0.167140
C161  C     C_R   0.152166 0.828060 0.082346 0.141718
C162  C     C_R   0.836211 0.146768 0.930704 0.144127
C163  C     C_R   0.861969 0.800598 0.899601 0.210539
C164  C     C_R   0.137319 0.207346 0.098881 0.194583
C165  C     C_R   0.747785 0.197749 0.789532 -0.183930
C166  C     C_R   0.238082 0.768431 0.218720 -0.210089
C167  C     C_R   0.225268 0.287064 0.235075 -0.182477
C168  C     C_R   0.748794 0.800579 0.790232 -0.167029
C169  C     C_R   0.279078 0.788429 0.755844 -0.194061
C170  C     C_R   0.749844 0.299744 0.210416 -0.193688
C171  C     C_R   0.750753 0.701211 0.211262 -0.201977
C172  C     C_R   0.273633 0.232836 0.768571 -0.191970
C173  C     C_R   0.777199 0.183233 0.833638 -0.157836
C174  C     C_R   0.210432 0.780492 0.172749 -0.176302
C175  C     C_R   0.196076 0.274434 0.189699 -0.132119
C176  C     C_R   0.780275 0.812083 0.832368 -0.109816
C177  C     C_R   0.310438 0.776690 0.797902 -0.120644
C178  C     C_R   0.718324 0.311220 0.168246 -0.115989
C179  C     C_R   0.720388 0.688791 0.168534 -0.137871
C180  C     C_R   0.301743 0.250316 0.814023 -0.142324
H13   H     H_    0.761384 0.167692 0.728132 0.191858
H14   H     H_    0.212544 0.780749 0.287719 0.194515
H15   H     H_    0.202348 0.300072 0.305968 0.172383
H16   H     H_    0.756837 0.836260 0.734966 0.182680
H17   H     H_    0.300898 0.797280 0.684044 0.176548
H18   H     H_    0.741574 0.335519 0.265860 0.183620
H19   H     H_    0.737160 0.670734 0.272133 0.189698
H20   H     H_    0.298377 0.229755 0.696617 0.189175
H21   H     H_    0.814453 0.152448 0.796388 0.178911
H22   H     H_    0.167572 0.789812 0.212971 0.174157
H23   H     H_    0.152791 0.282911 0.228294 0.194984
H24   H     H_    0.810301 0.854699 0.805907 0.204372
H25   H     H_    0.353687 0.780271 0.754766 0.201374
H26   H     H_    0.688225 0.354117 0.194695 0.203656
H27   H     H_    0.682423 0.660359 0.207117 0.176500
H28   H     H_    0.342819 0.269369 0.772966 0.188406
O33   O     O_R   0.062020 0.072840 0.007170 -0.590307
O34   O     O_R   0.937980 0.927160 0.992830 -0.590480
O35   O     O_R   0.937980 0.072840 0.992830 -0.587766
O36   O     O_R   0.062020 0.927160 0.007170 -0.592539
O37   O     O_R   0.562020 0.572840 0.007170 -0.596824
O38   O     O_R   0.437980 0.427160 0.992830 -0.604013
O39   O     O_R   0.437980 0.572840 0.992830 -0.599152
O40   O     O_R   0.562020 0.427160 0.007170 -0.595230
O41   O     O_R   0.947860 0.073950 0.109290 -0.598303
O42   O     O_R   0.052140 0.926050 0.890710 -0.596785
O43   O     O_R   0.052140 0.073950 0.890710 -0.605447
O44   O     O_R   0.947860 0.926050 0.109290 -0.603086
O45   O     O_R   0.447860 0.573950 0.109290 -0.606655
O46   O     O_R   0.552140 0.426050 0.890710 -0.603261
O47   O     O_R   0.552140 0.573950 0.890710 -0.593318
O48   O     O_R   0.447860 0.426050 0.109290 -0.596361
C181  C     C_R   0.070888 0.104150 0.937536 0.935392
C182  C     C_R   0.928222 0.896861 0.063303 0.919127
C183  C     C_R   0.926923 0.101724 0.064480 0.927917
C184  C     C_R   0.071470 0.896331 0.936778 0.936456
C185  C     C_R   0.573189 0.601573 0.935299 0.936696
C186  C     C_R   0.429787 0.395287 0.062074 0.945997
C187  C     C_R   0.430188 0.605244 0.061443 0.940025
C188  C     C_R   0.571407 0.396526 0.936949 0.926933
Zn9   Zn    Zn3+2 0.505960 0.500000 0.080520 1.162236
Zn10  Zn    Zn3+2 0.494040 0.500000 0.919480 1.134609
Zn11  Zn    Zn3+2 0.005960 0.000000 0.080520 1.170189
Zn12  Zn    Zn3+2 0.994040 0.000000 0.919480 1.180952
N1    N     N_3   0.980917 0.272577 0.692749 -0.395910
H29   H     H_    0.949684 0.274338 0.759500 0.240707
H30   H     H_    0.979850 0.223354 0.662989 0.225343
N2    N     N_3   0.998159 0.745416 0.365127 -0.413696
H31   H     H_    0.992443 0.788859 0.408477 0.215258
H32   H     H_    0.030461 0.757047 0.301272 0.251728
N3    N     N_3   0.884639 0.279295 0.681478 -0.459414
H33   H     H_    0.901609 0.228603 0.654291 0.193630
H34   H     H_    0.871222 0.279570 0.750492 0.196512
N4    N     N_3   0.085021 0.746869 0.405424 -0.474778
H35   H     H_    0.096601 0.770764 0.343424 0.200095
H36   H     H_    0.058021 0.782172 0.455716 0.226631
N5    N     N_3   0.576796 0.734420 0.419759 -0.468692
H37   H     H_    0.548909 0.703507 0.474139 0.212674
H38   H     H_    0.588293 0.705855 0.360038 0.198973
N6    N     N_3   0.470979 0.266627 0.426919 -0.456506
H39   H     H_    0.498658 0.300058 0.375524 0.268001
H40   H     H_    0.458455 0.292142 0.488814 0.181272
N7    N     N_3   0.478518 0.733095 0.410620 -0.449716
H41   H     H_    0.506570 0.700616 0.358026 0.251008
H42   H     H_    0.467289 0.706758 0.471489 0.197242
N8    N     N_3   0.563989 0.265297 0.452922 -0.460378
H43   H     H_    0.533390 0.289258 0.511657 0.204178
H44   H     H_    0.574202 0.300695 0.399220 0.245678
N9    N     N_3   0.068249 0.335394 0.671578 -0.397570
H45   H     H_    0.087250 0.286952 0.639509 0.238813
H46   H     H_    0.089702 0.359617 0.700490 0.189288
N10   N     N_3   0.934503 0.659295 0.332057 -0.407686
H47   H     H_    0.921176 0.628356 0.294946 0.190167
H48   H     H_    0.910432 0.705918 0.356356 0.239497
N11   N     N_3   0.819874 0.361077 0.647397 -0.426925
H49   H     H_    0.785021 0.387952 0.654757 0.165001
H50   H     H_    0.819778 0.307525 0.627931 0.251573
N12   N     N_3   0.169618 0.641724 0.370865 -0.464585
H51   H     H_    0.168213 0.697129 0.382568 0.241244
H52   H     H_    0.170604 0.632992 0.309379 0.186758
N13   N     N_3   0.666667 0.826737 0.364888 -0.432167
H53   H     H_    0.704544 0.850726 0.345197 0.182308
H54   H     H_    0.665001 0.775869 0.392748 0.257812
N14   N     N_3   0.428674 0.183724 0.337911 -0.378454
H55   H     H_    0.407964 0.163350 0.305573 0.194845
H56   H     H_    0.408872 0.231053 0.372068 0.249065
N15   N     N_3   0.428540 0.815563 0.336176 -0.385352
H57   H     H_    0.408825 0.768866 0.371493 0.249094
H58   H     H_    0.407185 0.836087 0.304911 0.189377
N16   N     N_3   0.660863 0.175996 0.372339 -0.394997
H59   H     H_    0.658995 0.227255 0.399819 0.252865
H60   H     H_    0.699544 0.153059 0.349689 0.181979
N17   N     N_R   0.547698 0.311806 0.105483 0.224149
O49   O     O_R   0.521566 0.353271 0.175783 -0.333357
O50   O     O_R   0.519845 0.271467 0.079605 -0.371955
N18   N     N_R   0.457021 0.689770 0.894579 0.230853
O51   O     O_R   0.487395 0.725530 0.919493 -0.387018
O52   O     O_R   0.479991 0.644361 0.827510 -0.322453
N19   N     N_R   0.452615 0.293565 0.907163 0.230501
O53   O     O_R   0.478927 0.335542 0.837808 -0.339589
O54   O     O_R   0.479653 0.256695 0.937938 -0.352467
N20   N     N_R   0.565059 0.675313 0.109950 0.236286
O55   O     O_R   0.532828 0.710766 0.088393 -0.377720
O56   O     O_R   0.547967 0.662421 0.194557 -0.390991
N21   N     N_R   0.060055 0.812233 0.099257 0.207556
O57   O     O_R   0.030953 0.853424 0.168592 -0.335050
O58   O     O_R   0.035245 0.764400 0.075724 -0.383535
N22   N     N_R   0.932082 0.167336 0.889246 0.213986
O59   O     O_R   0.964212 0.208973 0.904375 -0.392954
O60   O     O_R   0.950361 0.139589 0.809353 -0.384439
N23   N     N_R   0.951170 0.811960 0.894698 0.224441
O61   O     O_R   0.977155 0.853616 0.824953 -0.310536
O62   O     O_R   0.979171 0.771888 0.920839 -0.385536
N24   N     N_R   0.049692 0.190847 0.100653 0.227541
O63   O     O_R   0.021165 0.230505 0.075189 -0.394425
O64   O     O_R   0.024530 0.146230 0.167649 -0.309113
N25   N     N_R   0.608390 0.298535 0.196670 0.204382
O65   O     O_R   0.588880 0.358162 0.242736 -0.385468
O66   O     O_R   0.606429 0.238267 0.238007 -0.409392
N26   N     N_R   0.398824 0.699843 0.799360 0.208672
O67   O     O_R   0.441686 0.736406 0.743564 -0.356818
O68   O     O_R   0.383265 0.644158 0.770467 -0.377731
N27   N     N_R   0.398686 0.220821 0.827625 0.214051
O69   O     O_R   0.438619 0.250956 0.757453 -0.351863
O70   O     O_R   0.386688 0.153250 0.822877 -0.354052
N28   N     N_R   0.658850 0.585098 0.116755 0.196809
O71   O     O_R   0.613792 0.548135 0.157788 -0.322824
O72   O     O_R   0.704359 0.552421 0.098638 -0.391367
N29   N     N_R   0.139292 0.882290 0.151023 0.221575
O73   O     O_R   0.174262 0.933538 0.137804 -0.328828
O74   O     O_R   0.096135 0.876872 0.229651 -0.379822
N30   N     N_R   0.835324 0.076949 0.892241 0.204805
O75   O     O_R   0.878104 0.034761 0.858902 -0.311519
O76   O     O_R   0.788813 0.048299 0.909692 -0.386384
N31   N     N_R   0.890504 0.798858 0.803090 0.219034
O77   O     O_R   0.910349 0.858298 0.757458 -0.320072
O78   O     O_R   0.892843 0.738860 0.760770 -0.366981
N32   N     N_R   0.110724 0.189770 0.192763 0.216304
O79   O     O_R   0.067491 0.225578 0.249958 -0.353693
O80   O     O_R   0.129836 0.137596 0.221245 -0.319739

loop_
_geom_bond_atom_site_label_1
_geom_bond_atom_site_label_2
_geom_bond_distance
_ccdc_geom_bond_type
N16   H60   1.045325 S    
O4    C4    1.244979 A    
O5    C5    1.246369 A    
O7    Zn7   2.017001 S    
O31   Zn4   2.074082 S    
O8    Zn8   2.017001 S    
N21   O57   1.299834 A    
O38   Zn10  1.983445 S    
N9    H45   1.043200 S    
O18   Zn2   2.016764 S    
C44   C68   1.412590 A    
C46   C66   1.404163 A    
C84   C95   1.421199 A    
C150  N18   1.440374 S    
C12   C59   1.441135 S    
C108  C148  1.413661 A    
O44   Zn11  1.996557 S    
C76   N16   1.440085 S    
O33   Zn11  1.983444 S    
O34   Zn12  1.983445 S    
C102  C142  1.410278 A    
C103  C111  1.435723 A    
C19   C33   1.413393 A    
C178  H26   1.078060 S    
C55   C62   1.371076 A    
O2    C2    1.243079 A    
C29   N4    1.433568 S    
C28   N5    1.435614 S    
C33   C35   1.408774 A    
O6    Zn6   2.013606 S    
C36   C43   1.409789 A    
C139  C171  1.413155 A    
C37   C39   1.409074 A    
O46   Zn10  1.987538 S    
N12   H52   1.045890 S    
O41   Zn11  1.987536 S    
O42   Zn12  1.987538 S    
O23   C15   1.293056 A    
N22   O59   1.302202 A    
C10   C57   1.463750 S    
C53   C61   1.376365 A    
C112  C185  1.462856 S    
O27   C3    1.292177 A    
C169  H17   1.080843 S    
N14   H55   1.045726 S    
C38   C42   1.408621 A    
N27   O69   1.300880 A    
C102  C110  1.444395 A    
C95   C164  1.433923 A    
O47   Zn10  1.996556 S    
C5    C129  1.443605 S    
N26   O67   1.302096 A    
C152  C160  1.402422 A    
O43   Zn12  1.996556 S    
N2    H31   1.044840 S    
C57   C63   1.380056 A    
C48   C65   1.413906 A    
O30   Zn1   2.073773 S    
C23   C31   1.412463 A    
N8    H43   1.044875 S    
O17   Zn1   2.016764 S    
C86   C94   1.417020 A    
O35   C183  1.223062 A    
O32   C8    1.302737 A    
C137  C145  1.402351 A    
C89   C97   1.452883 A    
C77   C98   1.416286 A    
C179  H27   1.078315 S    
C83   C91   1.418780 A    
C89   C177  1.412541 A    
C52   C67   1.409605 A    
O23   Zn7   2.008116 S    
C81   C94   1.402821 A    
O24   Zn8   2.008116 S    
O9    C9    1.235395 A    
C103  C151  1.414036 A    
O12   C12   1.239682 A    
C171  H19   1.073104 S    
O13   C13   1.256727 A    
C109  C117  1.377344 A    
N6    H40   1.044837 S    
C18   C75   1.417960 A    
C115  C123  1.378653 A    
C140  C148  1.419111 A    
C47   C69   1.418293 A    
C126  C134  1.445975 A    
C85   C93   1.425286 A    
C86   C174  1.383315 A    
O7    C7    1.247485 A    
C63   H3    1.083850 S    
O9    Zn6   2.103973 S    
O8    C8    1.248933 A    
C107  C155  1.422968 A    
C166  C174  1.361219 A    
C100  C159  1.434283 A    
O11   Zn8   2.096773 S    
C107  C115  1.440068 A    
N4    H36   1.045181 S    
N15   H58   1.045696 S    
C94   C161  1.430281 A    
N25   O65   1.301333 A    
C122  C130  1.374675 A    
O16   Zn3   2.096773 S    
O42   C184  1.272881 A    
N32   O79   1.302231 A    
C18   C36   1.414419 A    
O22   Zn6   2.016764 S    
C47   C66   1.410972 A    
C73   N13   1.436996 S    
C134  C166  1.409768 A    
O30   C6    1.309079 A    
C34   C36   1.411456 A    
C134  C142  1.422944 A    
C22   C40   1.414906 A    
O18   C10   1.288551 A    
C38   C40   1.418283 A    
C35   C44   1.406699 A    
C174  H22   1.067878 S    
N30   O75   1.301217 A    
C80   C88   1.416275 A    
O33   C181  1.230527 A    
N17   O50   1.301418 A    
C52   C74   1.421482 A    
O2    Zn2   2.013606 S    
C19   C27   1.415699 A    
C45   C53   1.423917 A    
C47   C55   1.430508 A    
O6    C6    1.240516 A    
C160  N28   1.445215 S    
C177  H25   1.071744 S    
C82   C146  1.434602 A    
C91   C99   1.426731 A    
N1    H29   1.044344 S    
C151  C159  1.420706 A    
C149  C157  1.419357 A    
O20   C12   1.295406 A    
C152  N20   1.445511 S    
O21   C13   1.279660 A    
C3    C127  1.455177 S    
C101  C149  1.421641 A    
C163  N31   1.435664 S    
O39   Zn10  1.973935 S    
C1    C125  1.473396 S    
O24   C16   1.295585 A    
C167  H15   1.081846 S    
O35   Zn12  1.973935 S    
C106  C154  1.416022 A    
C113  C121  1.369241 A    
N20   O55   1.302284 A    
C111  C119  1.375025 A    
N26   O68   1.301082 A    
C180  H28   1.076237 S    
C50   C76   1.425849 A    
C51   C68   1.404090 A    
N24   O64   1.301889 A    
O3    C3    1.255040 A    
N2    H32   1.044811 S    
C17   C25   1.411032 A    
C80   C144  1.434649 A    
C132  C140  1.442579 A    
N5    H37   1.044787 S    
N28   O72   1.302372 A    
C172  H20   1.075924 S    
O28   C4    1.308503 A    
C17   C76   1.409475 A    
N27   O70   1.301452 A    
C19   C74   1.413386 A    
N23   O62   1.301678 A    
C119  C127  1.374041 A    
C120  H8    1.084934 S    
C83   C96   1.416485 A    
O29   C5    1.289461 A    
C111  C186  1.464003 S    
C104  C152  1.412139 A    
C123  H11   1.084802 S    
C124  H12   1.085098 S    
C113  C184  1.462005 S    
C74   N14   1.444499 S    
O48   C186  1.273295 A    
C114  C183  1.457673 S    
C24   C38   1.422335 A    
C108  C156  1.417770 A    
C71   N11   1.437682 S    
C34   C44   1.408979 A    
N18   O51   1.301433 A    
C83   C147  1.433841 A    
C39   C42   1.418267 A    
C99   C160  1.420380 A    
C130  C138  1.449592 A    
C6    C130  1.471341 S    
C153  N21   1.443535 S    
C17   C35   1.406505 A    
C22   C71   1.421842 A    
C102  C150  1.419431 A    
C154  C162  1.400905 A    
C21   C39   1.409362 A    
C33   C43   1.411076 A    
N16   H59   1.041850 S    
C90   C178  1.408537 A    
C118  C126  1.373599 A    
O12   Zn7   2.096773 S    
C87   C95   1.443243 A    
O46   C188  1.272452 A    
O13   Zn2   2.103973 S    
O47   C185  1.273101 A    
C170  C178  1.399335 A    
C85   C173  1.402840 A    
N3    H33   1.044748 S    
C78   C97   1.421201 A    
C51   C59   1.437559 A    
C165  C173  1.384701 A    
C48   C56   1.420249 A    
C82   C93   1.416180 A    
C93   C162  1.416353 A    
O10   C10   1.259087 A    
C4    C128  1.469772 S    
O14   C14   1.256394 A    
C115  C182  1.466560 S    
N29   O74   1.300396 A    
N22   O60   1.300568 A    
C45   C65   1.402700 A    
C88   C176  1.407643 A    
C164  N32   1.434527 S    
C127  C135  1.427956 A    
C173  H21   1.079112 S    
C30   N3    1.435998 S    
C125  C133  1.446154 A    
C168  C176  1.398803 A    
N14   H56   1.041867 S    
O10   Zn5   2.103973 S    
C128  C136  1.447717 A    
C96   C163  1.426191 A    
C129  C137  1.431436 A    
O36   C184  1.231479 A    
C49   C75   1.422319 A    
C171  C179  1.382363 A    
C25   C27   1.412921 A    
O41   C183  1.273654 A    
C79   C100  1.412003 A    
C15   C56   1.458995 S    
C51   C73   1.426539 A    
C80   C99   1.415225 A    
C50   C68   1.407251 A    
C119  H7    1.085007 S    
C101  C141  1.406804 A    
C120  C128  1.377711 A    
C136  C168  1.414745 A    
C59   C64   1.365036 A    
C153  C161  1.402636 A    
C91   C179  1.401282 A    
C56   C61   1.367883 A    
C79   C143  1.429573 A    
N8    H44   1.043711 S    
C77   C141  1.431694 A    
N21   O58   1.301572 A    
O19   C11   1.287783 A    
N9    H46   1.045360 S    
C122  H10   1.085139 S    
N11   H49   1.045276 S    
C45   C71   1.420016 A    
C11   C60   1.460057 S    
C140  C172  1.408158 A    
N7    H42   1.045017 S    
C105  C153  1.407996 A    
N7    H41   1.042798 S    
O3    Zn3   2.017001 S    
O27   Zn8   2.074082 S    
O39   C187  1.231617 A    
C27   N6    1.434893 S    
C60   C63   1.380662 A    
N19   O53   1.300994 A    
C84   C148  1.438807 A    
O32   Zn3   2.074082 S    
C90   C98   1.437376 A    
C92   C180  1.404804 A    
C118  H6    1.084949 S    
C37   C41   1.406615 A    
C25   N8    1.436149 S    
C21   C72   1.409247 A    
C155  C163  1.422095 A    
N31   O78   1.301237 A    
C159  N27   1.439087 S    
O15   Zn4   2.096773 S    
O25   Zn6   2.073773 S    
O34   C182  1.227862 A    
O38   C186  1.234804 A    
C161  N29   1.441064 S    
O22   C14   1.278885 A    
C84   C92   1.426739 A    
C41   C65   1.406392 A    
C43   C67   1.406690 A    
O40   Zn9   1.973938 S    
C2    C126  1.474192 S    
C109  C188  1.460874 S    
C165  H13   1.073852 S    
C110  C187  1.471426 S    
C64   H4    1.086089 S    
C138  C146  1.411143 A    
C18   C26   1.415400 A    
N12   H51   1.035074 S    
C151  N19   1.436446 S    
C106  C114  1.435410 A    
C79   C87   1.425670 A    
C77   C85   1.415626 A    
C149  N17   1.442750 S    
C110  C118  1.377495 A    
C78   C142  1.442695 A    
N32   O80   1.301203 A    
C88   C96   1.437637 A    
C157  N25   1.431556 S    
O37   C185  1.226332 A    
O48   Zn9   1.996557 S    
C138  C170  1.414466 A    
C92   C100  1.435717 A    
O37   Zn9   1.983444 S    
C156  N24   1.440935 S    
N13   H53   1.045355 S    
C26   N7    1.434982 S    
N30   O76   1.302258 A    
C137  C169  1.407175 A    
C48   C70   1.411864 A    
N17   O49   1.300636 A    
C116  C124  1.373465 A    
N13   H54   1.040173 S    
N15   H57   1.042021 S    
C87   C175  1.413791 A    
C20   C28   1.415099 A    
C69   N9    1.440600 S    
C169  C177  1.394570 A    
C104  C112  1.433949 A    
C167  C175  1.392113 A    
C105  C113  1.430475 A    
C97   C158  1.436074 A    
C106  C146  1.405692 A    
C7    C131  1.475343 S    
C8    C132  1.467539 S    
C72   N12   1.433935 S    
C26   C28   1.413055 A    
N23   O61   1.300581 A    
C108  C116  1.440871 A    
C16   C55   1.460984 S    
N3    H34   1.044906 S    
N31   O77   1.301410 A    
O15   C15   1.261786 A    
O16   C16   1.260235 A    
O1    C1    1.243812 A    
C135  C167  1.400876 A    
O40   C188  1.227779 A    
C133  C165  1.412954 A    
O4    Zn4   2.017001 S    
C42   C66   1.408957 A    
O5    Zn5   2.013606 S    
N6    H39   1.043897 S    
C50   C58   1.438754 A    
C139  C147  1.417914 A    
C172  C180  1.385313 A    
C175  H23   1.073234 S    
N4    H35   1.039717 S    
N20   O56   1.300079 A    
O14   Zn1   2.103973 S    
O45   Zn9   1.987536 S    
C121  H9    1.085318 S    
C154  N22   1.444335 S    
C46   C72   1.405866 A    
C32   N1    1.433612 S    
C20   C34   1.407371 A    
C29   C31   1.407231 A    
C46   C54   1.418714 A    
C23   C70   1.414952 A    
O26   C2    1.306192 A    
C123  C131  1.376355 A    
O31   C7    1.308340 A    
C124  C132  1.372865 A    
C176  H24   1.078343 S    
C103  C143  1.411812 A    
C101  C109  1.436244 A    
C155  N23   1.442569 S    
C81   C145  1.428304 A    
C116  C181  1.467619 S    
C156  C164  1.416529 A    
C22   C30   1.419380 A    
C150  C158  1.421628 A    
C13   C54   1.444929 S    
C82   C90   1.414274 A    
O28   Zn7   2.074082 S    
C104  C144  1.406627 A    
O29   Zn2   2.073773 S    
C61   H1    1.084976 S    
O45   C187  1.277557 A    
C107  C147  1.408856 A    
C20   C73   1.413488 A    
C166  H14   1.060026 S    
N18   O52   1.301814 A    
C170  H18   1.078179 S    
C49   C57   1.425901 A    
N11   H50   1.039365 S    
O43   C181  1.276754 A    
C81   C89   1.428364 A    
C70   N10   1.441933 S    
O11   C11   1.262171 A    
N19   O54   1.301099 A    
C136  C144  1.409415 A    
N10   H47   1.045744 S    
N1    H30   1.044692 S    
O44   C182  1.275083 A    
C158  N26   1.431102 S    
O26   Zn5   2.073773 S    
C52   C60   1.421962 A    
C23   C37   1.421520 A    
C21   C29   1.411974 A    
C24   C69   1.431797 A    
C135  C143  1.408598 A    
C168  H16   1.078174 S    
C133  C141  1.417522 A    
C40   C41   1.419850 A    
C131  C139  1.446348 A    
N29   O73   1.301375 A    
C49   C67   1.410963 A    
C31   N2    1.436549 S    
C98   C157  1.423521 A    
C121  C129  1.373938 A    
C117  H5    1.084841 S    
O20   Zn4   2.008116 S    
O21   Zn5   2.016764 S    
N24   O63   1.301473 A    
C14   C53   1.440562 S    
O1    Zn1   2.013606 S    
C58   C64   1.363589 A    
N10   H48   1.041825 S    
N5    H38   1.045218 S    
C75   N15   1.444148 S    
C62   H2    1.084827 S    
C24   C32   1.418020 A    
N28   O71   1.302010 A    
O36   Zn11  1.973938 S    
O17   C9    1.295334 A    
C114  C122  1.375893 A    
O19   Zn3   2.008116 S    
C112  C120  1.376623 A    
N25   O66   1.300405 A    
O25   C1    1.306388 A    
C9    C58   1.443213 S    
C30   C32   1.412465 A    
C117  C125  1.374511 A    
C78   C86   1.420855 A    
C162  N30   1.446748 S    
C54   C62   1.372578 A    
C105  C145  1.414216 A    
