data_mof_unit_2246.cif
_audit_creation_date              2012-12-10T20:11:25-0500
_audit_creation_method            fapswitch 2.2
_symmetry_space_group_name_H-M    P1
_symmetry_Int_Tables_number       1
_space_group_crystal_system       triclinic
_cell_length_a                    15.886596
_cell_length_b                    15.886626
_cell_length_c                    51.684023
_cell_angle_alpha                 89.99948
_cell_angle_beta                  89.999527
_cell_angle_gamma                 89.996821
_cell_volume                      13044.2415819

loop_
_atom_site_label
_atom_site_type_symbol
_atom_type_description
_atom_site_fract_x
_atom_site_fract_y
_atom_site_fract_z
_atom_type_partial_charge
C1    C     C_R   0.068764 0.534759 0.636682 0.286538
C2    C     C_R   0.568895 0.965496 0.863328 0.286489
C3    C     C_1   0.276606 0.223394 0.250000 -0.115341
C4    C     C_1   0.223391 0.723391 0.750000 -0.109158
C5    C     C_1   0.776605 0.276606 0.250000 -0.115245
C6    C     C_1   0.276609 0.223391 0.750000 -0.109256
C7    C     C_1   0.723394 0.776606 0.250000 -0.115345
C8    C     C_1   0.776609 0.723391 0.250000 -0.109253
C9    C     C_1   0.223394 0.276606 0.750000 -0.115340
C10   C     C_1   0.723392 0.223391 0.250000 -0.109154
C11   C     C_1   0.276605 0.776606 0.750000 -0.115243
C12   C     C_1   0.223391 0.276609 0.250000 -0.109249
C13   C     C_R   0.965478 0.568887 0.136673 0.286470
C14   C     C_1   0.776606 0.723394 0.750000 -0.115336
C15   C     C_1   0.276609 0.776609 0.250000 -0.109153
C16   C     C_1   0.723394 0.223395 0.750000 -0.115244
C17   C     C_R   0.508997 0.074353 0.945177 0.570920
C18   C     C_R   0.509752 0.925727 0.054845 0.570841
C19   C     C_R   0.925726 0.509744 0.945156 0.570838
C20   C     C_R   0.074353 0.509010 0.054823 0.570924
C21   C     C_R   0.491001 0.925644 0.945177 0.570918
C22   C     C_R   0.490251 0.074268 0.054845 0.570834
C23   C     C_R   0.074268 0.490252 0.945155 0.570832
C24   C     C_R   0.034837 0.568721 0.863316 0.286541
C25   C     C_R   0.925647 0.490999 0.054824 0.570922
C26   C     C_R   0.009105 0.574332 0.445173 0.570904
C27   C     C_R   0.009620 0.425710 0.554842 0.570852
C28   C     C_R   0.425726 0.009722 0.445156 0.570843
C29   C     C_R   0.574356 0.009002 0.554823 0.570904
C30   C     C_R   0.990898 0.425650 0.445173 0.570908
C31   C     C_R   0.990394 0.574279 0.554841 0.570846
C32   C     C_R   0.574270 0.990262 0.445155 0.570848
C33   C     C_R   0.425649 0.990995 0.554824 0.570908
C34   C     C_R   0.497203 0.922701 0.972503 -0.159960
C35   C     C_R   0.431281 0.965154 0.136684 0.286537
C36   C     C_R   0.496214 0.077271 0.027513 -0.159991
C37   C     C_R   0.077271 0.496212 0.972487 -0.159991
C38   C     C_R   0.922704 0.497204 0.027498 -0.159955
C39   C     C_R   0.502798 0.077295 0.972503 -0.159961
C40   C     C_R   0.503790 0.922725 0.027513 -0.159993
C41   C     C_R   0.922725 0.503787 0.972488 -0.159996
C42   C     C_R   0.077296 0.502802 0.027497 -0.159954
C43   C     C_R   0.997051 0.422700 0.472501 -0.159960
C44   C     C_R   0.996386 0.577268 0.527510 -0.159990
C45   C     C_R   0.577272 0.996239 0.472486 -0.159986
C46   C     C_R   0.431103 0.034502 0.863328 0.286487
C47   C     C_R   0.422705 0.997172 0.527497 -0.159966
C48   C     C_R   0.002953 0.577283 0.472500 -0.159959
C49   C     C_R   0.003626 0.422718 0.527511 -0.159986
C50   C     C_R   0.422727 0.003746 0.472487 -0.159988
C51   C     C_R   0.577299 0.002822 0.527496 -0.159963
C52   C     C_R   0.142742 0.565508 0.594761 0.160197
C53   C     C_R   0.195808 0.509459 0.581510 -0.135250
C54   C     C_R   0.263873 0.540011 0.567154 -0.138188
C55   C     C_R   0.279320 0.626552 0.565922 -0.110251
C56   C     C_R   0.226693 0.682697 0.579035 -0.089935
C57   C     C_R   0.034524 0.431118 0.136673 0.286469
C58   C     C_R   0.158533 0.652403 0.593406 -0.003903
C59   C     C_R   0.142965 0.434943 0.405245 0.160239
C60   C     C_R   0.195772 0.491144 0.418530 -0.135538
C61   C     C_R   0.263959 0.460806 0.432874 -0.138293
C62   C     C_R   0.279788 0.374328 0.434062 -0.110126
C63   C     C_R   0.227410 0.318030 0.420921 -0.089293
C64   C     C_R   0.159131 0.348109 0.406562 -0.003403
C65   C     C_R   0.435064 0.143012 0.594751 0.160250
C66   C     C_R   0.491301 0.195745 0.581451 -0.135612
C67   C     C_R   0.461011 0.263932 0.567098 -0.138251
C68   C     C_R   0.965160 0.431276 0.863316 0.286537
C69   C     C_R   0.374546 0.279838 0.565915 -0.110137
C70   C     C_R   0.318213 0.227540 0.579072 -0.089317
C71   C     C_R   0.348243 0.159258 0.593440 -0.003240
C72   C     C_R   0.565684 0.142659 0.405235 0.160201
C73   C     C_R   0.509695 0.195811 0.418480 -0.135204
C74   C     C_R   0.540330 0.263852 0.432831 -0.138250
C75   C     C_R   0.626895 0.279185 0.434066 -0.110231
C76   C     C_R   0.682980 0.226467 0.420962 -0.089856
C77   C     C_R   0.652603 0.158334 0.406595 -0.004051
C78   C     C_R   0.857270 0.434478 0.594761 0.160208
C79   C     C_R   0.500001 0.999998 0.986266 -0.113569
C80   C     C_R   0.804207 0.490521 0.581506 -0.135254
C81   C     C_R   0.736148 0.459961 0.567150 -0.138201
C82   C     C_R   0.720705 0.373420 0.565921 -0.110244
C83   C     C_R   0.773330 0.317281 0.579037 -0.089919
C84   C     C_R   0.841483 0.347582 0.593408 -0.003908
C85   C     C_R   0.857034 0.565031 0.405247 0.160228
C86   C     C_R   0.804230 0.508822 0.418530 -0.135532
C87   C     C_R   0.736043 0.539151 0.432876 -0.138288
C88   C     C_R   0.720210 0.625628 0.434067 -0.110143
C89   C     C_R   0.772584 0.681933 0.420927 -0.089306
C90   C     C_R   0.500002 0.999998 0.013752 -0.113370
C91   C     C_R   0.840864 0.651863 0.406566 -0.003403
C92   C     C_R   0.564947 0.856989 0.594752 0.160249
C93   C     C_R   0.508711 0.804253 0.581454 -0.135607
C94   C     C_R   0.539003 0.736065 0.567101 -0.138249
C95   C     C_R   0.625468 0.720164 0.565917 -0.110133
C96   C     C_R   0.681801 0.772467 0.579072 -0.089312
C97   C     C_R   0.651768 0.840748 0.593440 -0.003244
C98   C     C_R   0.434315 0.857330 0.405234 0.160194
C99   C     C_R   0.490308 0.804174 0.418475 -0.135189
C100  C     C_R   0.459680 0.736128 0.432825 -0.138245
C101  C     C_R   0.999999 0.500000 0.986248 -0.113373
C102  C     C_R   0.373116 0.720793 0.434063 -0.110238
C103  C     C_R   0.317026 0.773515 0.420962 -0.089865
C104  C     C_R   0.347398 0.841654 0.406597 -0.004054
C105  C     C_R   0.642666 0.065674 0.094764 0.160195
C106  C     C_R   0.695826 0.009679 0.081526 -0.135169
C107  C     C_R   0.763871 0.040305 0.067176 -0.138221
C108  C     C_R   0.779201 0.126868 0.065935 -0.110256
C109  C     C_R   0.726475 0.182960 0.079033 -0.089973
C110  C     C_R   0.658338 0.152590 0.093399 -0.004084
C111  C     C_R   0.642991 0.935002 0.905247 0.160251
C112  C     C_R   0.068881 0.465466 0.363326 0.286506
C113  C     C_R   0.999999 0.500002 0.013734 -0.113582
C114  C     C_R   0.695753 0.991220 0.918543 -0.135618
C115  C     C_R   0.763939 0.960902 0.932893 -0.138301
C116  C     C_R   0.779811 0.874430 0.934076 -0.110120
C117  C     C_R   0.727480 0.818116 0.920923 -0.089167
C118  C     C_R   0.659203 0.848173 0.906558 -0.003241
C119  C     C_R   0.934962 0.642977 0.094754 0.160264
C120  C     C_R   0.991163 0.695750 0.081454 -0.135641
C121  C     C_R   0.960825 0.763928 0.067105 -0.138321
C122  C     C_R   0.874349 0.779782 0.065926 -0.110110
C123  C     C_R   0.818052 0.727439 0.079082 -0.089128
C124  C     C_R   0.000003 0.499992 0.486263 -0.113547
C125  C     C_R   0.848130 0.659169 0.093446 -0.003220
C126  C     C_R   0.065659 0.642667 0.905235 0.160191
C127  C     C_R   0.009659 0.695820 0.918474 -0.135172
C128  C     C_R   0.040277 0.763868 0.932823 -0.138209
C129  C     C_R   0.126838 0.779209 0.934063 -0.110255
C130  C     C_R   0.182936 0.726490 0.920965 -0.089994
C131  C     C_R   0.152574 0.658350 0.906599 -0.004075
C132  C     C_R   0.357337 0.934322 0.094765 0.160199
C133  C     C_R   0.304180 0.990317 0.081526 -0.135177
C134  C     C_R   0.236134 0.959691 0.067177 -0.138224
C135  C     C_R   0.000005 0.499993 0.513749 -0.113419
C136  C     C_R   0.220800 0.873128 0.065938 -0.110248
C137  C     C_R   0.273523 0.817037 0.079037 -0.089976
C138  C     C_R   0.341661 0.847406 0.093402 -0.004081
C139  C     C_R   0.357006 0.064993 0.905247 0.160252
C140  C     C_R   0.304246 0.008775 0.918544 -0.135620
C141  C     C_R   0.236058 0.039091 0.932894 -0.138302
C142  C     C_R   0.220183 0.125563 0.934076 -0.110117
C143  C     C_R   0.272513 0.181878 0.920922 -0.089167
C144  C     C_R   0.340792 0.151821 0.906557 -0.003240
C145  C     C_R   0.065048 0.357035 0.094753 0.160271
C146  C     C_R   0.500000 0.999994 0.486248 -0.113384
C147  C     C_R   0.008853 0.304261 0.081452 -0.135645
C148  C     C_R   0.039198 0.236088 0.067103 -0.138333
C149  C     C_R   0.125675 0.220240 0.065924 -0.110109
C150  C     C_R   0.181966 0.272583 0.079082 -0.089114
C151  C     C_R   0.151881 0.340847 0.093447 -0.003222
C152  C     C_R   0.934328 0.357330 0.905236 0.160198
C153  C     C_R   0.990324 0.304177 0.918476 -0.135179
C154  C     C_R   0.959699 0.236130 0.932826 -0.138213
C155  C     C_R   0.873138 0.220790 0.934064 -0.110250
C156  C     C_R   0.817046 0.273508 0.920963 -0.089982
C157  C     C_R   0.500001 0.999996 0.513734 -0.113561
C158  C     C_R   0.847413 0.341648 0.906598 -0.004070
C159  C     C_R   0.499773 0.845676 0.986407 0.347595
C160  C     C_R   0.497564 0.154319 0.013595 0.347406
C161  C     C_R   0.154319 0.497558 0.986404 0.347409
C162  C     C_R   0.845680 0.499777 0.013594 0.347602
C163  C     C_R   0.500231 0.154319 0.986407 0.347596
C164  C     C_R   0.465529 0.068910 0.636671 0.286499
C165  C     C_R   0.502441 0.845677 0.013596 0.347406
C166  C     C_R   0.845679 0.502443 0.986406 0.347413
C167  C     C_R   0.154319 0.500229 0.013592 0.347600
C168  C     C_R   0.999418 0.345674 0.486407 0.347549
C169  C     C_R   0.997931 0.654309 0.513594 0.347469
C170  C     C_R   0.654319 0.997640 0.486402 0.347405
C171  C     C_R   0.345680 0.999688 0.513592 0.347601
C172  C     C_R   0.000585 0.654308 0.486406 0.347551
C173  C     C_R   0.002078 0.345676 0.513596 0.347465
C174  C     C_R   0.345681 0.002347 0.486404 0.347408
C175  C     C_R   0.534845 0.068717 0.363316 0.286529
C176  C     C_R   0.654323 0.000304 0.513590 0.347599
C177  C     C_R   0.069228 0.533190 0.609391 -0.054512
C178  C     C_R   0.069336 0.467027 0.390617 -0.054482
C179  C     C_R   0.467092 0.069361 0.609380 -0.054482
C180  C     C_R   0.533276 0.069181 0.390607 -0.054506
C181  C     C_R   0.930781 0.466803 0.609391 -0.054517
C182  C     C_R   0.930665 0.532956 0.390618 -0.054481
C183  C     C_R   0.532917 0.930640 0.609380 -0.054485
C184  C     C_R   0.466718 0.930812 0.390606 -0.054506
C185  C     C_R   0.569186 0.033273 0.109393 -0.054518
C186  C     C_R   0.931239 0.465239 0.636682 0.286533
C187  C     C_R   0.569349 0.967059 0.890619 -0.054480
C188  C     C_R   0.967041 0.569343 0.109381 -0.054470
C189  C     C_R   0.033266 0.569186 0.890607 -0.054515
C190  C     C_R   0.430816 0.966723 0.109394 -0.054515
C191  C     C_R   0.430649 0.032938 0.890620 -0.054477
C192  C     C_R   0.032963 0.430665 0.109381 -0.054475
C193  C     C_R   0.966727 0.430811 0.890607 -0.054513
C194  C     C_R   0.000005 0.499995 0.595764 0.111201
C195  C     C_R   0.000001 0.499991 0.404246 0.111063
C196  C     C_R   0.500004 0.000000 0.595751 0.111032
C197  C     C_R   0.931119 0.534523 0.363327 0.286509
C198  C     C_R   0.499997 0.999995 0.404234 0.111213
C199  C     C_R   0.500001 0.999998 0.095766 0.111224
C200  C     C_R   0.499999 0.999998 0.904248 0.111014
C201  C     C_R   0.000002 0.500004 0.095752 0.111006
C202  C     C_R   0.999996 0.499998 0.904234 0.111228
C203  C     C_R   0.000000 0.500000 0.820329 0.905732
C204  C     C_R   1.000000 0.500000 0.179668 0.905413
C205  C     C_R   0.500000 1.000000 0.820332 0.905393
C206  C     C_R   0.500000 1.000000 0.179671 0.905735
C207  C     C_R   0.500000 1.000000 0.320329 0.905741
C208  C     C_R   0.534478 0.931093 0.636672 0.286500
C209  C     C_R   0.500001 0.000000 0.679668 0.905352
C210  C     C_R   1.000000 0.499999 0.320332 0.905424
C211  C     C_R   0.000000 0.500000 0.679670 0.905638
C212  C     C_R   0.839710 0.660290 0.750000 0.847981
C213  C     C_R   0.160289 0.339711 0.250000 0.860406
C214  C     C_R   0.339709 0.839709 0.750000 0.847982
C215  C     C_R   0.660290 0.160290 0.250000 0.860601
C216  C     C_R   0.160291 0.339709 0.750000 0.847988
C217  C     C_R   0.839711 0.660289 0.250000 0.860415
C218  C     C_R   0.660291 0.160291 0.750000 0.847983
C219  C     C_R   0.465149 0.931279 0.363316 0.286532
C220  C     C_R   0.339710 0.839710 0.250000 0.860602
C221  C     C_R   0.839709 0.339709 0.250000 0.847988
C222  C     C_R   0.160290 0.660290 0.750000 0.860576
C223  C     C_R   0.339710 0.160290 0.250000 0.847987
C224  C     C_R   0.660289 0.839711 0.750000 0.860385
C225  C     C_R   0.160291 0.660291 0.250000 0.847989
C226  C     C_R   0.839710 0.339710 0.750000 0.860574
C227  C     C_R   0.660291 0.839709 0.250000 0.847995
C228  C     C_R   0.339711 0.160289 0.750000 0.860393
C229  C     C_R   0.000001 0.500000 0.650694 -0.221003
C230  C     C_R   0.568721 0.034842 0.136684 0.286539
C231  C     C_R   1.000000 0.499996 0.349312 -0.220996
C232  C     C_R   0.500003 0.000001 0.650687 -0.221005
C233  C     C_R   0.499998 0.999999 0.349305 -0.220983
C234  C     C_R   0.500001 0.999999 0.150695 -0.220991
C235  C     C_R   0.499999 0.999999 0.849313 -0.220991
C236  C     C_R   0.000000 0.500002 0.150687 -0.220965
C237  C     C_R   0.999999 0.499999 0.849305 -0.220991
C238  C     C_1   0.776609 0.276609 0.750000 -0.109159
C239  C     C_1   0.223394 0.723395 0.250000 -0.115245
C240  C     C_1   0.723391 0.776609 0.750000 -0.109251
Cl1   Cl    Cl    0.505427 0.746540 0.970560 -0.375132
Cl2   Cl    Cl    0.002087 0.753558 0.529415 -0.374791
Cl3   Cl    Cl    0.753583 0.001581 0.470582 -0.374854
Cl4   Cl    Cl    0.246538 0.005266 0.529437 -0.375034
Cl5   Cl    Cl    0.995212 0.753462 0.470564 -0.375106
Cl6   Cl    Cl    0.997926 0.246428 0.529418 -0.374791
Cl7   Cl    Cl    0.246416 0.998401 0.470585 -0.374853
Cl8   Cl    Cl    0.753467 0.994735 0.529434 -0.375032
Cl9   Cl    Cl    0.155176 0.582421 0.652755 -0.560475
Cl10  Cl    Cl    0.155481 0.418124 0.347256 -0.560456
Cl11  Cl    Cl    0.418264 0.155556 0.652738 -0.560410
Cl12  Cl    Cl    0.501422 0.253592 0.029412 -0.374825
Cl13  Cl    Cl    0.582624 0.155063 0.347240 -0.560553
Cl14  Cl    Cl    0.844822 0.417585 0.652755 -0.560473
Cl15  Cl    Cl    0.844517 0.581866 0.347259 -0.560453
Cl16  Cl    Cl    0.581748 0.844449 0.652739 -0.560408
Cl17  Cl    Cl    0.417369 0.844936 0.347239 -0.560548
Cl18  Cl    Cl    0.655068 0.082617 0.152759 -0.560533
Cl19  Cl    Cl    0.655518 0.918188 0.847259 -0.560459
Cl20  Cl    Cl    0.918147 0.655494 0.152742 -0.560494
Cl21  Cl    Cl    0.082604 0.655072 0.847240 -0.560522
Cl22  Cl    Cl    0.344934 0.917380 0.152760 -0.560538
Cl23  Cl    Cl    0.253592 0.501400 0.970587 -0.374798
Cl24  Cl    Cl    0.344480 0.081809 0.847259 -0.560460
Cl25  Cl    Cl    0.081855 0.344510 0.152742 -0.560494
Cl26  Cl    Cl    0.917395 0.344925 0.847241 -0.560528
Cl27  Cl    Cl    0.746549 0.505446 0.029443 -0.375172
Cl28  Cl    Cl    0.494576 0.253456 0.970559 -0.375137
Cl29  Cl    Cl    0.498589 0.746402 0.029413 -0.374812
Cl30  Cl    Cl    0.746404 0.498599 0.970590 -0.374789
Cl31  Cl    Cl    0.253454 0.494566 0.029440 -0.375168
Cl32  Cl    Cl    0.004776 0.246517 0.470566 -0.375090
H1    H     H_    0.184394 0.442293 0.582296 0.164914
H2    H     H_    0.118536 0.303906 0.396622 0.178882
H3    H     H_    0.558411 0.183977 0.582199 0.164817
H4    H     H_    0.504554 0.304401 0.556871 0.131593
H5    H     H_    0.351188 0.332608 0.554784 0.130030
H6    H     H_    0.251267 0.239804 0.578083 0.176097
H7    H     H_    0.304012 0.118720 0.603390 0.178867
H8    H     H_    0.442512 0.184487 0.417691 0.164909
H9    H     H_    0.496973 0.304649 0.443014 0.131706
H10   H     H_    0.650523 0.331835 0.445197 0.129987
H11   H     H_    0.750002 0.238293 0.421990 0.176184
H12   H     H_    0.304600 0.496610 0.556965 0.131680
H13   H     H_    0.696637 0.117471 0.396684 0.178920
H14   H     H_    0.815619 0.557688 0.582290 0.164913
H15   H     H_    0.695423 0.503358 0.556958 0.131683
H16   H     H_    0.668043 0.349850 0.554785 0.129920
H17   H     H_    0.761419 0.250276 0.578013 0.176012
H18   H     H_    0.882277 0.303506 0.603327 0.178897
H19   H     H_    0.815939 0.441703 0.417774 0.164830
H20   H     H_    0.695515 0.495629 0.443088 0.131615
H21   H     H_    0.667436 0.649017 0.445190 0.130104
H22   H     H_    0.760376 0.748889 0.421923 0.176246
H23   H     H_    0.331988 0.650116 0.554788 0.129915
H24   H     H_    0.881456 0.696072 0.396628 0.178891
H25   H     H_    0.441601 0.816017 0.582203 0.164814
H26   H     H_    0.495461 0.695592 0.556876 0.131592
H27   H     H_    0.648828 0.667394 0.554787 0.130037
H28   H     H_    0.748748 0.760206 0.578082 0.176102
H29   H     H_    0.695999 0.881290 0.603388 0.178868
H30   H     H_    0.557491 0.815500 0.417683 0.164916
H31   H     H_    0.503040 0.695328 0.443005 0.131710
H32   H     H_    0.349493 0.668139 0.445192 0.129991
H33   H     H_    0.250005 0.761689 0.421993 0.176187
H34   H     H_    0.238607 0.749701 0.578009 0.176009
H35   H     H_    0.303360 0.882520 0.396689 0.178925
H36   H     H_    0.684505 0.942496 0.082320 0.164919
H37   H     H_    0.804675 0.996944 0.056998 0.131712
H38   H     H_    0.831854 0.150490 0.054804 0.129976
H39   H     H_    0.738298 0.249981 0.078000 0.176113
H40   H     H_    0.617469 0.196629 0.103305 0.178921
H41   H     H_    0.684012 0.058335 0.917795 0.164789
H42   H     H_    0.804434 0.004431 0.943116 0.131604
H43   H     H_    0.832582 0.851050 0.945203 0.130102
H44   H     H_    0.739718 0.751163 0.921913 0.176239
H45   H     H_    0.117738 0.696484 0.603321 0.178907
H46   H     H_    0.618641 0.803957 0.896611 0.178880
H47   H     H_    0.058281 0.684023 0.082199 0.164783
H48   H     H_    0.004341 0.804432 0.056880 0.131616
H49   H     H_    0.850954 0.832547 0.054800 0.130118
H50   H     H_    0.751096 0.739663 0.078095 0.176262
H51   H     H_    0.803926 0.618599 0.103396 0.178874
H52   H     H_    0.942477 0.684491 0.917680 0.164925
H53   H     H_    0.996912 0.804666 0.943002 0.131707
H54   H     H_    0.150454 0.831865 0.945193 0.129954
H55   H     H_    0.249955 0.738322 0.921997 0.176093
H56   H     H_    0.184067 0.558264 0.417776 0.164826
H57   H     H_    0.196617 0.617487 0.896693 0.178922
H58   H     H_    0.315504 0.057499 0.082318 0.164924
H59   H     H_    0.195334 0.003052 0.056997 0.131716
H60   H     H_    0.168146 0.849506 0.054809 0.129972
H61   H     H_    0.261696 0.750017 0.078006 0.176108
H62   H     H_    0.382527 0.803367 0.103310 0.178916
H63   H     H_    0.315990 0.941660 0.917797 0.164793
H64   H     H_    0.195565 0.995561 0.943118 0.131604
H65   H     H_    0.167411 0.148941 0.945203 0.130103
H66   H     H_    0.260272 0.248830 0.921911 0.176237
H67   H     H_    0.304489 0.504323 0.443087 0.131617
H68   H     H_    0.381352 0.196039 0.896609 0.178878
H69   H     H_    0.941734 0.315984 0.082197 0.164782
H70   H     H_    0.995686 0.195585 0.056876 0.131622
H71   H     H_    0.149076 0.167479 0.054797 0.130127
H72   H     H_    0.248922 0.260364 0.078095 0.176269
H73   H     H_    0.196080 0.381419 0.103397 0.178868
H74   H     H_    0.057505 0.315506 0.917684 0.164923
H75   H     H_    0.003061 0.195332 0.943006 0.131708
H76   H     H_    0.849518 0.168134 0.945193 0.129954
H77   H     H_    0.750026 0.261677 0.921993 0.176093
H78   H     H_    0.332562 0.350932 0.445184 0.130106
H79   H     H_    0.803374 0.382511 0.896690 0.178914
H80   H     H_    0.239615 0.251073 0.421915 0.176246
N1    N     N_R   0.499999 0.999998 0.932266 -0.341586
N2    N     N_R   0.500001 0.999998 0.067749 -0.341516
N3    N     N_R   0.999996 0.499997 0.932251 -0.341517
N4    N     N_R   0.000001 0.500005 0.067734 -0.341587
N5    N     N_R   0.000002 0.499991 0.432264 -0.341569
N6    N     N_R   0.000007 0.499995 0.567747 -0.341536
N7    N     N_R   0.499998 0.999993 0.432250 -0.341519
N8    N     N_R   0.500003 0.999999 0.567733 -0.341591
O1    O     O_3   1.000000 0.500000 0.750000 -0.526003
O2    O     O_R   0.000000 0.430630 0.192350 -0.589410
O3    O     O_R   0.430630 0.000000 0.807650 -0.589406
O4    O     O_R   0.569370 0.000000 0.192350 -0.589553
O5    O     O_R   0.500000 0.930630 0.307650 -0.589554
O6    O     O_R   0.500000 0.069370 0.692350 -0.589399
O7    O     O_R   0.069370 0.500000 0.307650 -0.589417
O8    O     O_R   0.930630 0.500000 0.692350 -0.589518
O9    O     O_R   0.500000 0.069370 0.307650 -0.589550
O10   O     O_R   0.500000 0.930630 0.692350 -0.589398
O11   O     O_R   0.930630 0.500000 0.307650 -0.589420
O12   O     O_3   0.000000 0.500000 0.250000 -0.526032
O13   O     O_R   0.069370 0.500000 0.692350 -0.589522
O14   O     O_R   0.902350 0.666510 0.764820 -0.627576
O15   O     O_R   0.097650 0.333490 0.235180 -0.616847
O16   O     O_R   0.333490 0.902350 0.764820 -0.627495
O17   O     O_R   0.666510 0.097650 0.235180 -0.616827
O18   O     O_R   0.097650 0.333490 0.764820 -0.627576
O19   O     O_R   0.902350 0.666510 0.235180 -0.616847
O20   O     O_R   0.666510 0.097650 0.764820 -0.627493
O21   O     O_R   0.333490 0.902350 0.235180 -0.616824
O22   O     O_R   0.902350 0.333490 0.235180 -0.627494
O23   O     O_3   0.500000 1.000000 0.750000 -0.526036
O24   O     O_R   0.097650 0.666510 0.764820 -0.616823
O25   O     O_R   0.333490 0.097650 0.235180 -0.627573
O26   O     O_R   0.666510 0.902350 0.764820 -0.616849
O27   O     O_R   0.097650 0.666510 0.235180 -0.627497
O28   O     O_R   0.902350 0.333490 0.764820 -0.616826
O29   O     O_R   0.666510 0.902350 0.235180 -0.627573
O30   O     O_R   0.333490 0.097650 0.764820 -0.616850
O31   O     O_R   0.402350 0.166510 0.264820 -0.627572
O32   O     O_R   0.597650 0.833490 0.735180 -0.616844
O33   O     O_R   0.833490 0.402350 0.264820 -0.627500
O34   O     O_3   0.500000 0.000000 0.250000 -0.525998
O35   O     O_R   0.166510 0.597650 0.735180 -0.616829
O36   O     O_R   0.597650 0.833490 0.264820 -0.627573
O37   O     O_R   0.402350 0.166510 0.735180 -0.616846
O38   O     O_R   0.166510 0.597650 0.264820 -0.627498
O39   O     O_R   0.833490 0.402350 0.735180 -0.616827
O40   O     O_R   0.402350 0.833490 0.735180 -0.627483
O41   O     O_R   0.597650 0.166510 0.264820 -0.616825
O42   O     O_R   0.833490 0.597650 0.735180 -0.627548
O43   O     O_R   0.166510 0.402350 0.264820 -0.616847
O44   O     O_R   0.597650 0.166510 0.735180 -0.627485
O45   O     O_R   0.000000 0.430630 0.807650 -0.589548
O46   O     O_R   0.402350 0.833490 0.264820 -0.616826
O47   O     O_R   0.166510 0.402350 0.735180 -0.627549
O48   O     O_R   0.833490 0.597650 0.264820 -0.616850
O49   O     O_2   0.525070 0.144415 0.931347 -0.512330
O50   O     O_2   0.526300 0.855811 0.068692 -0.512428
O51   O     O_2   0.855808 0.526284 0.931309 -0.512413
O52   O     O_2   0.144414 0.525098 0.068651 -0.512344
O53   O     O_2   0.474927 0.855582 0.931348 -0.512331
O54   O     O_2   0.473701 0.144184 0.068691 -0.512434
O55   O     O_2   0.144185 0.473710 0.931307 -0.512414
O56   O     O_R   0.000000 0.569370 0.192350 -0.589415
O57   O     O_2   0.855587 0.474914 0.068653 -0.512336
O58   O     O_2   0.025230 0.644373 0.431339 -0.512365
O59   O     O_2   0.026071 0.355767 0.568687 -0.512344
O60   O     O_2   0.355805 0.026269 0.431310 -0.512433
O61   O     O_2   0.644419 0.025057 0.568653 -0.512276
O62   O     O_2   0.974774 0.355609 0.431341 -0.512370
O63   O     O_2   0.973944 0.644223 0.568685 -0.512340
O64   O     O_2   0.644190 0.973715 0.431309 -0.512432
O65   O     O_2   0.355588 0.974942 0.568656 -0.512268
O66   O     O_R   0.569370 0.000000 0.807650 -0.589405
O67   O     O_R   0.430630 0.000000 0.192350 -0.589550
O68   O     O_R   1.000000 0.569370 0.807650 -0.589547
Zn1   Zn    Zn3+2 0.900880 0.500000 0.727850 1.045681
Zn2   Zn    Zn3+2 0.599120 1.000000 0.772150 1.045674
Zn3   Zn    Zn3+2 1.000000 0.400880 0.227850 1.045678
Zn4   Zn    Zn3+2 1.000000 0.599120 0.772150 1.045667
Zn5   Zn    Zn3+2 0.599120 0.000000 0.227850 1.045673
Zn6   Zn    Zn3+2 0.400880 1.000000 0.772150 1.045675
Zn7   Zn    Zn3+2 1.000000 0.599120 0.227850 1.045678
Zn8   Zn    Zn3+2 1.000000 0.400880 0.772150 1.045667
Zn9   Zn    Zn3+2 0.099120 0.500000 0.272150 1.045676
Zn10  Zn    Zn3+2 0.500000 0.900880 0.727850 1.045680
Zn11  Zn    Zn3+2 0.500000 0.099120 0.272150 1.045673
Zn12  Zn    Zn3+2 0.099120 0.500000 0.727850 1.045681
Zn13  Zn    Zn3+2 0.900880 0.500000 0.272150 1.045675
Zn14  Zn    Zn3+2 0.500000 0.099120 0.727850 1.045681
Zn15  Zn    Zn3+2 0.500000 0.900880 0.272150 1.045674
Zn16  Zn    Zn3+2 0.400880 0.000000 0.227850 1.045673

loop_
_geom_bond_atom_site_label_1
_geom_bond_atom_site_label_2
_ccdc_geom_bond_type
C105  C110  A    
C126  C127  A    
C171  Cl4   S    
C101  C113  A    
C32   C45   A    
C160  Cl12  S    
C169  Cl2   S    
C55   C56   A    
C45   C170  A    
C49   C173  A    
C114  C115  A    
O13   Zn12  S    
C146  C157  A    
C170  C176  A    
C43   C168  A    
C85   C182  S    
C111  C118  A    
C13   Cl20  S    
C186  Cl14  S    
C30   O62   S    
C10   C215  S    
O67   Zn16  S    
C106  C107  A    
C226  O28   A    
C143  C144  A    
O42   Zn1   S    
C15   C239  T    
C162  Cl27  S    
O7    Zn9   S    
C108  C109  A    
C17   C39   A    
C18   C40   A    
C119  C188  S    
C79   C90   A    
O15   Zn3   S    
C103  H33   S    
C210  O11   A    
C210  C231  S    
C68   C193  A    
C219  Cl17  S    
C211  C229  S    
C44   C135  A    
O8    Zn1   S    
C138  H62   S    
C134  H59   S    
C73   H8    S    
O36   Zn15  S    
C28   N7    A    
C93   H25   S    
C66   H3    S    
C114  H41   S    
C190  C199  A    
C220  O46   A    
O40   Zn10  S    
O24   Zn4   S    
C160  C163  A    
C144  H68   S    
C140  C141  A    
C57   C192  A    
C31   C44   A    
O46   Zn15  S    
C213  O15   A    
O48   Zn13  S    
C23   C37   A    
C51   C157  A    
O45   Zn8   S    
C209  O10   A    
C75   C76   A    
C151  H73   S    
O56   Zn7   S    
C20   C42   A    
O12   Zn9   S    
C109  H39   S    
C87   H20   S    
C110  H40   S    
C4    C222  S    
C35   C234  A    
C76   C77   A    
O34   Zn11  S    
C154  C155  A    
C164  C179  A    
C52   C58   A    
C208  C232  A    
C13   C236  A    
C224  O26   A    
C206  O67   A    
C35   C190  A    
C184  C198  A    
C200  N1    S    
O3    Zn6   S    
C225  C239  S    
C30   C43   A    
O1    Zn8   S    
C132  C190  S    
C31   O63   S    
C42   C167  A    
C112  C178  A    
C29   O61   S    
C223  O25   A    
C124  C135  A    
C77   H13   S    
C72   C73   A    
C47   C171  A    
C139  C140  A    
C22   C36   A    
C80   H14   S    
C70   H6    S    
C187  C200  A    
C164  C232  A    
C156  C158  A    
C130  C131  A    
C204  C236  S    
C137  H61   S    
O29   Zn5   S    
C7    C227  S    
C172  Cl5   S    
C230  C234  A    
C207  O9    A    
C51   C176  A    
C180  C198  A    
C11   C214  S    
C31   N6    A    
C84   H18   S    
C88   C89   A    
C98   C99   A    
C155  C156  A    
C128  H53   S    
C22   O54   S    
C109  C110  A    
C132  C138  A    
C173  Cl6   S    
C163  Cl28  S    
C129  H54   S    
C20   N4    A    
C46   C191  A    
C210  O7    A    
C211  O13   A    
C6    C9    T    
C83   H17   S    
C32   N7    A    
O47   Zn12  S    
C176  Cl8   S    
C85   C86   A    
C209  O6    A    
C185  C230  A    
C118  H46   S    
C112  C231  A    
C22   N2    A    
C35   Cl22  S    
C62   H78   S    
C34   C79   A    
C78   C80   A    
C89   H22   S    
C115  C116  A    
C91   H24   S    
O23   Zn14  S    
C225  O27   A    
C88   H21   S    
C67   H4    S    
C211  O8    A    
O16   Zn6   S    
C8    C217  S    
C142  H65   S    
C198  N7    S    
C74   H9    S    
C175  C233  A    
O1    Zn4   S    
C24   Cl21  S    
O2    Zn3   S    
C16   C218  S    
C89   C91   A    
O35   Zn12  S    
C55   H23   S    
C34   C159  A    
O39   Zn1   S    
C223  O31   A    
C2    Cl19  S    
C49   C135  A    
C16   C238  T    
C153  H74   S    
C69   C70   A    
C182  C197  A    
C1    C229  A    
C30   N5    A    
C92   C97   A    
C104  H35   S    
C183  C196  A    
C140  H63   S    
C170  Cl3   S    
C136  H60   S    
C191  C200  A    
O27   Zn7   S    
C221  O22   A    
C204  O56   A    
C18   N2    A    
C71   H7    S    
C159  C165  A    
C148  H70   S    
C23   N3    A    
C25   C38   A    
C19   O51   S    
C161  Cl23  S    
C83   C84   A    
C108  H38   S    
C17   O49   S    
C41   C166  A    
C141  H64   S    
C94   H26   S    
C224  C240  S    
C40   C165  A    
C161  C167  A    
C203  O45   A    
C143  H66   S    
C145  C192  S    
C225  O38   A    
C221  O33   A    
C72   C180  S    
C52   C53   A    
C207  C233  S    
C129  C130  A    
C29   C51   A    
C36   C90   A    
C215  O17   A    
C54   C55   A    
C3    C223  S    
C86   H19   S    
C59   C178  S    
C136  C137  A    
C60   H56   S    
C181  C186  A    
C158  H79   S    
C52   C177  S    
C189  C202  A    
O12   Zn13  S    
O14   Zn4   S    
C206  C234  S    
C58   H45   S    
O34   Zn15  S    
C117  C118  A    
C37   C101  A    
O43   Zn9   S    
C107  H37   S    
C56   C58   A    
O4    Zn5   S    
O1    Zn12  S    
C98   C184  S    
C61   C62   A    
C203  C237  S    
C122  H49   S    
C63   C64   A    
C19   C41   A    
C59   C60   A    
C152  C153  A    
C195  N5    S    
C19   N3    A    
C150  C151  A    
C204  O2    A    
C182  C195  A    
C217  O48   A    
C24   C237  A    
C27   C49   A    
C87   C88   A    
C222  O24   A    
C73   C74   A    
C219  C233  A    
C25   N4    A    
C5    C221  S    
O31   Zn11  S    
O26   Zn2   S    
C222  O35   A    
C75   H10   S    
C202  N3    S    
C165  Cl29  S    
O21   Zn16  S    
O10   Zn10  S    
C139  C191  S    
C68   C237  A    
O66   Zn2   S    
C123  C125  A    
O20   Zn2   S    
O44   Zn14  S    
C212  O14   A    
C120  H47   S    
C115  H42   S    
C44   C169  A    
C20   O52   S    
C162  C166  A    
C21   O53   S    
C147  C148  A    
C6    C228  S    
C201  N4    S    
C192  C201  A    
C149  H71   S    
C70   C71   A    
C81   H15   S    
C82   H16   S    
C68   Cl26  S    
C26   C48   A    
C50   C146  A    
O1    Zn1   S    
C128  C129  A    
C12   C213  S    
C145  C147  A    
C174  Cl7   S    
C179  C196  A    
C197  C231  A    
C171  C174  A    
C152  C158  A    
C227  O36   A    
C177  C194  A    
C7    C8    T    
O19   Zn7   S    
C38   C113  A    
C86   C87   A    
C156  H77   S    
O17   Zn5   S    
C21   C34   A    
C65   C179  S    
C64   H2    S    
C53   C54   A    
C193  C202  A    
C60   C61   A    
C209  C232  S    
C39   C79   A    
C62   C63   A    
C150  H72   S    
C33   N8    A    
C205  C235  S    
C4    C11   T    
C185  C199  A    
C121  C122  A    
C175  C180  A    
C99   H30   S    
C119  C125  A    
C133  C134  A    
C226  O39   A    
C199  N2    S    
C39   C163  A    
C127  C128  A    
C205  O3    A    
C57   C236  A    
C37   C161  A    
C137  C138  A    
C217  O19   A    
O12   Zn3   S    
C27   O59   S    
C154  H75   S    
O23   Zn6   S    
C25   O57   S    
C119  C120  A    
C112  Cl10  S    
C105  C106  A    
O41   Zn11  S    
C111  C187  S    
C18   O50   S    
C14   C212  S    
C216  O47   A    
C46   C235  A    
C100  H31   S    
C168  Cl32  S    
C155  H76   S    
C224  O32   A    
C56   H34   S    
C149  C150  A    
O9    Zn11  S    
C131  H57   S    
C92   C93   A    
C41   C101  A    
C111  C114  A    
C1    Cl9   S    
C94   C95   A    
C82   C83   A    
O32   Zn10  S    
C103  C104  A    
C142  C143  A    
C40   C90   A    
C218  O20   A    
C63   H80   S    
C159  Cl1   S    
C196  N8    S    
C14   C240  T    
C123  H50   S    
C93   C94   A    
C226  C238  S    
C21   N1    A    
C76   H11   S    
C95   C96   A    
C33   C47   A    
C81   C82   A    
C85   C91   A    
C186  C229  A    
O5    Zn15  S    
O18   Zn8   S    
C28   O60   S    
C59   C64   A    
C152  C193  S    
C228  O30   A    
C32   O64   S    
O11   Zn13  S    
C116  H43   S    
C46   Cl24  S    
C188  C201  A    
C116  C117  A    
C96   H28   S    
C105  C185  S    
C3    C12   T    
C2    C187  A    
C28   C50   A    
C184  C219  A    
C230  Cl18  S    
C132  C133  A    
C214  O16   A    
C24   C189  A    
C194  N6    S    
C27   N6    A    
C121  H48   S    
C53   H1    S    
C57   Cl25  S    
C13   C188  A    
C48   C172  A    
C183  C208  A    
C166  Cl30  S    
C102  C103  A    
C1    C177  A    
C175  Cl13  S    
O33   Zn13  S    
C9    C216  S    
C54   H12   S    
C168  C173  A    
C74   C75   A    
C125  H51   S    
C45   C146  A    
C164  Cl11  S    
C148  C149  A    
C206  O4    A    
C133  H58   S    
C134  C136  A    
C215  O41   A    
C65   C71   A    
C17   N1    A    
C213  O43   A    
C67   C69   A    
C126  C189  S    
O34   Zn16  S    
C72   C77   A    
C181  C194  A    
C212  O42   A    
C139  C144  A    
C42   C113  A    
C99   C100  A    
C38   C162  A    
C107  C108  A    
C33   O65   S    
C96   C97   A    
C100  C102  A    
C127  H52   S    
O30   Zn6   S    
C227  O29   A    
C145  C151  A    
O28   Zn8   S    
C47   C157  A    
C169  C172  A    
O25   Zn16  S    
C97   H29   S    
C207  O5    A    
C216  O18   A    
C106  H36   S    
C203  O68   A    
C69   H5    S    
O6    Zn14  S    
C95   H27   S    
C80   C81   A    
C92   C183  S    
C23   O55   S    
C48   C124  A    
C218  O44   A    
C178  C195  A    
C50   C174  A    
C78   C181  S    
C15   C220  S    
C214  O40   A    
C5    C10   T    
C26   N5    A    
C141  C142  A    
C220  O21   A    
C126  C131  A    
O23   Zn2   S    
C98   C104  A    
C66   C67   A    
C228  O37   A    
C36   C160  A    
C102  H32   S    
C130  H55   S    
C78   C84   A    
C2    C235  A    
C167  Cl31  S    
O38   Zn9   S    
C197  Cl15  S    
C65   C66   A    
C61   H67   S    
O12   Zn7   S    
C122  C123  A    
O23   Zn10  S    
C120  C121  A    
O37   Zn14  S    
C208  Cl16  S    
C153  C154  A    
O34   Zn5   S    
C43   C124  A    
C26   O58   S    
O22   Zn3   S    
O68   Zn4   S    
C29   N8    A    
C205  O66   A    
C147  H69   S    
C117  H44   S    
