data_mof_unit_4982.cif
_audit_creation_date              2013-03-05T16:46:06-0500
_audit_creation_method            fapswitch 2.2
_symmetry_space_group_name_H-M    P1
_symmetry_Int_Tables_number       1
_space_group_crystal_system       triclinic
_cell_length_a                    25.984801
_cell_length_b                    34.357342
_cell_length_c                    21.73538
_cell_angle_alpha                 89.998384
_cell_angle_beta                  127.54205
_cell_angle_gamma                 90.00148
_cell_volume                      15386.0835441

loop_
_atom_site_label
_atom_site_type_symbol
_atom_site_description
_atom_site_fract_x
_atom_site_fract_y
_atom_site_fract_z
_atom_type_partial_charge
Zn1   Zn    Zn3+2 0.076130 0.782750 0.565500 0.995030
Zn2   Zn    Zn3+2 0.923870 0.217250 0.434500 0.994086
Zn3   Zn    Zn3+2 0.923870 0.782750 0.434500 0.994956
Zn4   Zn    Zn3+2 0.076130 0.217250 0.565500 0.993910
Zn5   Zn    Zn3+2 0.576130 0.282750 0.565500 0.994163
Zn6   Zn    Zn3+2 0.423870 0.717250 0.434500 0.994888
Zn7   Zn    Zn3+2 0.423870 0.282750 0.434500 0.994062
Zn8   Zn    Zn3+2 0.576130 0.717250 0.565500 0.994872
Zn9   Zn    Zn3+2 0.010650 0.717250 0.434510 1.086117
Zn10  Zn    Zn3+2 0.989350 0.282750 0.565490 1.086315
Zn11  Zn    Zn3+2 0.989350 0.717250 0.565490 1.086131
Zn12  Zn    Zn3+2 0.010650 0.282750 0.434510 1.086313
Zn13  Zn    Zn3+2 0.510650 0.217250 0.434510 1.086213
Zn14  Zn    Zn3+2 0.489350 0.782750 0.565490 1.086161
Zn15  Zn    Zn3+2 0.489350 0.217250 0.565490 1.086249
Zn16  Zn    Zn3+2 0.510650 0.782750 0.434510 1.086184
O1    O     O_3   0.000000 0.750000 0.500000 -0.531985
O2    O     O_3   0.000000 0.250000 0.500000 -0.531210
O3    O     O_3   0.500000 0.250000 0.500000 -0.531297
O4    O     O_3   0.500000 0.750000 0.500000 -0.531934
O5    O     O_R   0.992580 0.662560 0.545880 -0.610079
O6    O     O_R   0.007420 0.337440 0.454120 -0.610188
O7    O     O_R   0.007420 0.662560 0.454120 -0.610070
O8    O     O_R   0.992580 0.337440 0.545880 -0.610213
O9    O     O_R   0.492580 0.162560 0.545880 -0.610141
O10   O     O_R   0.507420 0.837440 0.454120 -0.610098
O11   O     O_R   0.507420 0.162560 0.454120 -0.610204
O12   O     O_R   0.492580 0.837440 0.545880 -0.610102
O13   O     O_R   0.053270 0.837440 0.545830 -0.645188
O14   O     O_R   0.946730 0.162560 0.454170 -0.646029
O15   O     O_R   0.946730 0.837440 0.454170 -0.645302
O16   O     O_R   0.053270 0.162560 0.545830 -0.646113
O17   O     O_R   0.553270 0.337440 0.545830 -0.645935
O18   O     O_R   0.446730 0.662560 0.454170 -0.645338
O19   O     O_R   0.446730 0.337440 0.454170 -0.645932
O20   O     O_R   0.553270 0.662560 0.545830 -0.645382
O21   O     O_R   0.092900 0.727070 0.454160 -0.620017
O22   O     O_R   0.907100 0.272930 0.545840 -0.620130
O23   O     O_R   0.907100 0.727070 0.545840 -0.620033
O24   O     O_R   0.092900 0.272930 0.454160 -0.620158
O25   O     O_R   0.592900 0.227070 0.454160 -0.620160
O26   O     O_R   0.407100 0.772930 0.545840 -0.620006
O27   O     O_R   0.407100 0.227070 0.545840 -0.620191
O28   O     O_R   0.592900 0.772930 0.454160 -0.620025
O29   O     O_R   0.861280 0.772920 0.454160 -0.647522
O30   O     O_R   0.138720 0.227080 0.545840 -0.648653
O31   O     O_R   0.138720 0.772920 0.545840 -0.647528
O32   O     O_R   0.861280 0.227080 0.454160 -0.648571
O33   O     O_R   0.361280 0.272920 0.454160 -0.648574
O34   O     O_R   0.638720 0.727080 0.545840 -0.647561
O35   O     O_R   0.638720 0.272920 0.545840 -0.648521
O36   O     O_R   0.361280 0.727080 0.454160 -0.647582
O37   O     O_R   0.942960 0.727070 0.325140 -0.592935
O38   O     O_R   0.057040 0.272930 0.674860 -0.593792
O39   O     O_R   0.057040 0.727070 0.674860 -0.592962
O40   O     O_R   0.942960 0.272930 0.325140 -0.593746
O41   O     O_R   0.442960 0.227070 0.325140 -0.593776
O42   O     O_R   0.557040 0.772930 0.674860 -0.592931
O43   O     O_R   0.557040 0.227070 0.674860 -0.593711
O44   O     O_R   0.442960 0.772930 0.325140 -0.592952
O45   O     O_R   0.882220 0.772920 0.325130 -0.649185
O46   O     O_R   0.117780 0.227080 0.674870 -0.652060
O47   O     O_R   0.117780 0.772920 0.674870 -0.649170
O48   O     O_R   0.882220 0.227080 0.325130 -0.651837
O49   O     O_R   0.382220 0.272920 0.325130 -0.651858
O50   O     O_R   0.617780 0.727080 0.674870 -0.649293
O51   O     O_R   0.617780 0.272920 0.674870 -0.651722
O52   O     O_R   0.382220 0.727080 0.325130 -0.649332
C1    C     C_R   1.000000 0.644468 0.500000 0.951519
C2    C     C_R   0.000001 0.355532 0.500000 0.951036
C3    C     C_R   0.499999 0.144469 0.500001 0.950244
C4    C     C_R   0.500003 0.855530 0.500001 0.951741
C5    C     C_R   0.000001 0.855738 0.499999 0.922876
C6    C     C_R   0.000000 0.144259 0.499999 0.923727
C7    C     C_R   0.500000 0.355741 0.500000 0.923823
C8    C     C_R   0.499999 0.644262 0.500001 0.922841
C9    C     C_R   0.139907 0.750631 0.499724 0.860094
C10   C     C_R   0.860070 0.249386 0.500236 0.861186
C11   C     C_R   0.860092 0.750630 0.500275 0.860221
C12   C     C_R   0.139932 0.249389 0.499768 0.861277
C13   C     C_R   0.639928 0.250615 0.499760 0.860966
C14   C     C_R   0.360089 0.749371 0.500271 0.860279
C15   C     C_R   0.360071 0.250613 0.500239 0.860907
C16   C     C_R   0.639910 0.749372 0.499728 0.860348
C17   C     C_R   0.893670 0.749946 0.288562 0.935737
C18   C     C_R   0.106372 0.250106 0.711425 0.938202
C19   C     C_R   0.106331 0.749944 0.711438 0.935796
C20   C     C_R   0.893631 0.250103 0.288573 0.938034
C21   C     C_R   0.393630 0.249896 0.288574 0.938144
C22   C     C_R   0.606331 0.750056 0.711437 0.935785
C23   C     C_R   0.606368 0.249899 0.711427 0.938023
C24   C     C_R   0.393667 0.750057 0.288563 0.935882
C25   C     C_R   0.378999 0.745566 0.165272 0.418673
C26   C     C_R   0.621205 0.255526 0.834673 0.417841
C27   C     C_R   0.620994 0.745591 0.834728 0.418694
C28   C     C_R   0.378778 0.255605 0.165330 0.417761
C29   C     C_R   0.878791 0.244471 0.165327 0.417812
C30   C     C_R   0.120994 0.754426 0.834728 0.418702
C31   C     C_R   0.121230 0.244389 0.834670 0.417740
C32   C     C_R   0.879010 0.754404 0.165271 0.418728
C33   C     C_R   0.351229 0.748873 0.203821 -0.265840
C34   C     C_R   0.648826 0.251019 0.796158 -0.264745
C35   C     C_R   0.648768 0.748869 0.796180 -0.265855
C36   C     C_R   0.351170 0.251014 0.203843 -0.264664
C37   C     C_R   0.851172 0.248987 0.203842 -0.264693
C38   C     C_R   0.148767 0.751134 0.796181 -0.265903
C39   C     C_R   0.148834 0.248997 0.796155 -0.264585
C40   C     C_R   0.851234 0.751135 0.203819 -0.265902
C41   C     C_R   0.283595 0.749772 0.162146 0.423383
C42   C     C_R   0.716368 0.248807 0.837822 0.423466
C43   C     C_R   0.716403 0.749740 0.837855 0.423358
C44   C     C_R   0.283636 0.248715 0.162179 0.423451
C45   C     C_R   0.783633 0.251219 0.162180 0.423418
C46   C     C_R   0.216403 0.750259 0.837859 0.423396
C47   C     C_R   0.216363 0.251332 0.837816 0.423376
C48   C     C_R   0.783598 0.750280 0.162141 0.423360
C49   C     C_R   0.243345 0.751599 0.080671 -0.035339
C50   C     C_R   0.756546 0.247090 0.919319 -0.034801
C51   C     C_R   0.756655 0.751570 0.919329 -0.035344
C52   C     C_R   0.243463 0.247003 0.080681 -0.034767
C53   C     C_R   0.743452 0.252925 0.080682 -0.034773
C54   C     C_R   0.256651 0.748417 0.919332 -0.035354
C55   C     C_R   0.256539 0.253026 0.919317 -0.034726
C56   C     C_R   0.743348 0.748439 0.080668 -0.035353
C57   C     C_R   0.270693 0.749735 0.041055 -0.038403
C58   C     C_R   0.729311 0.250247 0.958936 -0.038612
C59   C     C_R   0.729305 0.749733 0.958946 -0.038395
C60   C     C_R   0.270689 0.250249 0.041064 -0.038607
C61   C     C_R   0.770686 0.249759 0.041064 -0.038602
C62   C     C_R   0.229301 0.750270 0.958948 -0.038403
C63   C     C_R   0.229316 0.249765 0.958934 -0.038599
C64   C     C_R   0.770699 0.750268 0.041052 -0.038398
C65   C     C_R   0.339210 0.747496 0.083357 -0.110748
C66   C     C_R   0.660913 0.253692 0.916612 -0.110267
C67   C     C_R   0.660786 0.747520 0.916644 -0.110757
C68   C     C_R   0.339076 0.253779 0.083389 -0.110251
C69   C     C_R   0.839083 0.246310 0.083388 -0.110263
C70   C     C_R   0.160784 0.752503 0.916645 -0.110756
C71   C     C_R   0.160930 0.246226 0.916610 -0.110243
C72   C     C_R   0.839218 0.752477 0.083354 -0.110763
C73   C     C_R   0.175974 0.754916 0.038473 -0.215635
C74   C     C_R   0.823746 0.242598 0.961546 -0.215508
C75   C     C_R   0.824029 0.754863 0.961527 -0.215649
C76   C     C_R   0.176277 0.242428 0.038452 -0.215514
C77   C     C_R   0.676252 0.257415 0.038454 -0.215531
C78   C     C_R   0.324021 0.745097 0.961528 -0.215647
C79   C     C_R   0.323726 0.257599 0.961547 -0.215509
C80   C     C_R   0.675974 0.745143 0.038472 -0.215648
C81   C     C_R   0.134531 0.753763 0.957798 0.314073
C82   C     C_R   0.865244 0.243799 0.042228 0.313485
C83   C     C_R   0.865471 0.753711 0.042202 0.314101
C84   C     C_R   0.134776 0.243629 0.957769 0.313335
C85   C     C_R   0.634753 0.256203 0.957772 0.313528
C86   C     C_R   0.365463 0.746236 0.042204 0.314036
C87   C     C_R   0.365228 0.256380 0.042229 0.313379
C88   C     C_R   0.634532 0.746286 0.957797 0.314063
H1    H     H_    0.154402 0.756915 0.068080 0.224792
H2    H     H_    0.845212 0.239618 0.931953 0.224980
H3    H     H_    0.845602 0.756841 0.931918 0.224785
H4    H     H_    0.154820 0.239380 0.068044 0.225001
H5    H     H_    0.654785 0.260399 0.068045 0.224940
H6    H     H_    0.345592 0.743103 0.931919 0.224843
H7    H     H_    0.345184 0.260654 0.931957 0.224933
H8    H     H_    0.654402 0.743167 0.068082 0.224819
C89   C     C_R   0.482563 0.581887 0.433477 0.345571
C90   C     C_R   0.517055 0.418125 0.566352 0.345074
C91   C     C_R   0.517422 0.581886 0.566523 0.345529
C92   C     C_R   0.482929 0.418128 0.433647 0.344960
C93   C     C_R   0.982949 0.081874 0.433649 0.345090
C94   C     C_R   0.017449 0.918113 0.566529 0.345729
C95   C     C_R   0.017070 0.081871 0.566351 0.344780
C96   C     C_R   0.982570 0.918114 0.433473 0.345552
C97   C     C_R   0.499997 0.601971 0.500001 -0.269716
C98   C     C_R   0.499996 0.398036 0.500001 -0.269252
C99   C     C_R   0.000005 0.101964 0.499998 -0.268952
C100  C     C_R   0.000004 0.898028 0.499999 -0.269850
C101  C     C_R   0.518945 0.541004 0.567317 -0.015008
C102  C     C_R   0.481200 0.459006 0.432758 -0.013815
C103  C     C_R   0.481032 0.541006 0.432680 -0.014972
C104  C     C_R   0.518774 0.459004 0.567238 -0.013742
C105  C     C_R   0.018804 0.040993 0.567242 -0.013519
C106  C     C_R   0.981049 0.958995 0.432680 -0.015302
C107  C     C_R   0.981230 0.040995 0.432763 -0.013347
C108  C     C_R   0.018979 0.958994 0.567324 -0.015188
C109  C     C_R   0.499988 0.520533 0.499999 -0.023716
C110  C     C_R   0.499986 0.479478 0.499998 -0.021273
C111  C     C_R   0.000018 0.020521 0.500003 -0.020850
C112  C     C_R   0.000015 0.979467 0.500002 -0.024071
C113  C     C_R   0.539147 0.520235 0.634214 -0.169178
C114  C     C_R   0.460961 0.479766 0.365841 -0.171087
C115  C     C_R   0.460823 0.520239 0.365781 -0.169154
C116  C     C_R   0.539008 0.479762 0.634154 -0.170970
C117  C     C_R   0.039047 0.020234 0.634161 -0.171508
C118  C     C_R   0.960845 0.979764 0.365783 -0.168955
C119  C     C_R   0.960991 0.020237 0.365846 -0.171268
C120  C     C_R   0.039191 0.979761 0.634224 -0.168825
H9    H     H_    0.555020 0.535179 0.686978 0.198882
H10   H     H_    0.445198 0.464812 0.313127 0.199053
H11   H     H_    0.444948 0.535184 0.313016 0.198877
H12   H     H_    0.554768 0.464807 0.686866 0.199050
H13   H     H_    0.054810 0.035188 0.686875 0.199010
H14   H     H_    0.944967 0.964820 0.313016 0.198922
H15   H     H_    0.945230 0.035193 0.313133 0.199003
H16   H     H_    0.055071 0.964816 0.686991 0.198903
C121  C     C_R   0.800366 0.890645 0.473198 0.246536
C122  C     C_R   0.201346 0.109707 0.531746 0.246654
C123  C     C_R   0.199634 0.890669 0.526610 0.246491
C124  C     C_R   0.798740 0.109652 0.468767 0.246641
C125  C     C_R   0.298729 0.390361 0.468934 0.246635
C126  C     C_R   0.699685 0.609382 0.527102 0.246577
C127  C     C_R   0.701207 0.390385 0.530835 0.246636
C128  C     C_R   0.300297 0.609373 0.472938 0.246573
C129  C     C_R   0.802509 0.853601 0.502974 0.167831
C130  C     C_R   0.198927 0.146389 0.500631 0.168508
C131  C     C_R   0.197495 0.853610 0.496888 0.167685
C132  C     C_R   0.801145 0.146373 0.499747 0.168118
C133  C     C_R   0.301123 0.353619 0.499844 0.168002
C134  C     C_R   0.697525 0.646402 0.497234 0.167999
C135  C     C_R   0.698818 0.353629 0.499975 0.167858
C136  C     C_R   0.302459 0.646394 0.502800 0.167953
C137  C     C_R   0.774225 0.821439 0.451870 -0.106927
C138  C     C_R   0.226997 0.178987 0.550561 -0.104342
C139  C     C_R   0.225725 0.821458 0.548025 -0.107086
C140  C     C_R   0.773134 0.178939 0.449714 -0.104714
C141  C     C_R   0.273164 0.321069 0.449764 -0.104756
C142  C     C_R   0.725848 0.678586 0.548271 -0.106739
C143  C     C_R   0.726773 0.321093 0.550099 -0.104946
C144  C     C_R   0.274165 0.678581 0.451764 -0.106801
C145  C     C_R   0.745875 0.826369 0.373233 -0.345581
C146  C     C_R   0.255576 0.174824 0.629413 -0.349361
C147  C     C_R   0.253994 0.826409 0.626634 -0.345336
C148  C     C_R   0.744655 0.174707 0.370904 -0.348758
C149  C     C_R   0.244773 0.325332 0.370986 -0.348552
C150  C     C_R   0.754278 0.673701 0.626941 -0.345909
C151  C     C_R   0.755149 0.325384 0.628868 -0.348313
C152  C     C_R   0.245768 0.673698 0.373103 -0.345837
H17   H     H_    0.723021 0.801802 0.334216 0.197375
H18   H     H_    0.278243 0.199732 0.667496 0.195401
H19   H     H_    0.276800 0.801849 0.665678 0.197311
H20   H     H_    0.722028 0.199588 0.332733 0.195526
H21   H     H_    0.222196 0.300460 0.332783 0.195322
H22   H     H_    0.777165 0.698285 0.665906 0.197403
H23   H     H_    0.777729 0.300525 0.667109 0.195483
H24   H     H_    0.222907 0.698284 0.334138 0.197355
C153  C     C_R   0.745032 0.862891 0.344094 0.424302
C154  C     C_R   0.256698 0.138663 0.659894 0.425213
C155  C     C_R   0.254818 0.862945 0.655714 0.424453
C156  C     C_R   0.743572 0.138510 0.340567 0.425183
C157  C     C_R   0.243717 0.361548 0.340722 0.425359
C158  C     C_R   0.755154 0.637202 0.656176 0.424158
C159  C     C_R   0.756193 0.361614 0.659077 0.425275
C160  C     C_R   0.244891 0.637197 0.343875 0.424225
C161  C     C_R   0.774100 0.894796 0.394428 0.361202
C162  C     C_R   0.227653 0.106367 0.610668 0.361998
C163  C     C_R   0.225826 0.894845 0.605350 0.361103
C164  C     C_R   0.772535 0.106242 0.389891 0.361771
C165  C     C_R   0.272603 0.393808 0.390091 0.361677
C166  C     C_R   0.726024 0.605279 0.605905 0.361333
C167  C     C_R   0.727315 0.393859 0.609668 0.361609
C168  C     C_R   0.273986 0.605270 0.394145 0.361299
C169  C     C_R   0.710147 0.782558 0.477036 -0.176075
C170  C     C_R   0.290268 0.217586 0.523796 -0.176099
C171  C     C_R   0.289840 0.782563 0.522936 -0.176003
C172  C     C_R   0.709773 0.217571 0.476293 -0.176013
C173  C     C_R   0.209741 0.282414 0.476221 -0.176222
C174  C     C_R   0.789857 0.717444 0.522970 -0.176019
C175  C     C_R   0.790222 0.282428 0.523698 -0.176077
C176  C     C_R   0.210154 0.717440 0.477058 -0.175923
H25   H     H_    0.679710 0.808145 0.459842 0.188457
H26   H     H_    0.321048 0.192112 0.541699 0.188871
H27   H     H_    0.320267 0.808154 0.540104 0.188438
H28   H     H_    0.679027 0.192086 0.458464 0.188752
H29   H     H_    0.178971 0.307891 0.458338 0.188709
H30   H     H_    0.820298 0.691858 0.540172 0.188505
H31   H     H_    0.820962 0.307915 0.541516 0.188671
H32   H     H_    0.179722 0.691851 0.459877 0.188504
C177  C     C_R   0.696513 0.748874 0.500690 -0.035046
C178  C     C_R   0.303464 0.251111 0.499269 -0.036165
C179  C     C_R   0.303486 0.748875 0.499309 -0.035095
C180  C     C_R   0.696536 0.251113 0.500732 -0.036120
C181  C     C_R   0.196544 0.248890 0.500745 -0.036146
C182  C     C_R   0.803492 0.751128 0.499316 -0.035049
C183  C     C_R   0.803459 0.248887 0.499260 -0.036124
C184  C     C_R   0.196508 0.751129 0.500684 -0.035103
C185  C     C_R   0.736876 0.715823 0.523861 0.131987
C186  C     C_R   0.262693 0.284023 0.475289 0.131545
C187  C     C_R   0.263132 0.715820 0.476161 0.131988
C188  C     C_R   0.737273 0.284037 0.524637 0.131568
C189  C     C_R   0.237343 0.215987 0.524780 0.131639
C190  C     C_R   0.763140 0.784183 0.476168 0.131952
C191  C     C_R   0.762707 0.215968 0.475324 0.131618
C192  C     C_R   0.236844 0.784189 0.523799 0.131925
C193  C     C_R   0.443259 0.917920 0.474904 0.262100
C194  C     C_R   0.556729 0.082087 0.525062 0.260554
C195  C     C_R   0.556739 0.917925 0.525095 0.262016
C196  C     C_R   0.443274 0.082094 0.474974 0.260214
C197  C     C_R   0.943314 0.417923 0.475111 0.261131
C198  C     C_R   0.056751 0.582076 0.525127 0.261915
C199  C     C_R   0.056688 0.417923 0.524869 0.261077
C200  C     C_R   0.943252 0.582074 0.474880 0.261886
C201  C     C_R   0.499999 0.897870 0.499995 -0.273116
C202  C     C_R   0.500003 0.102125 0.500011 -0.271495
C203  C     C_R   0.000001 0.397877 0.499995 -0.272631
C204  C     C_R   0.000001 0.602125 0.500004 -0.272950
C205  C     C_R   0.558770 0.958871 0.532362 -0.110939
C206  C     C_R   0.441227 0.041135 0.467908 -0.112037
C207  C     C_R   0.441233 0.958867 0.467668 -0.110934
C208  C     C_R   0.558772 0.041134 0.532195 -0.111741
C209  C     C_R   0.058756 0.458871 0.532125 -0.111250
C210  C     C_R   0.941226 0.541126 0.467652 -0.110929
C211  C     C_R   0.941247 0.458869 0.467848 -0.111231
C212  C     C_R   0.058777 0.541128 0.532347 -0.110905
C213  C     C_R   0.500002 0.979446 0.500029 -0.029798
C214  C     C_R   0.499999 0.020566 0.500043 -0.028469
C215  C     C_R   0.000002 0.479439 0.499991 -0.029106
C216  C     C_R   0.000001 0.520555 0.499996 -0.029654
C217  C     C_R   0.618137 0.979580 0.573118 0.211376
C218  C     C_R   0.381876 0.020387 0.427435 0.209619
C219  C     C_R   0.381870 0.979574 0.426950 0.211549
C220  C     C_R   0.618132 0.020395 0.572749 0.209728
C221  C     C_R   0.118131 0.479594 0.572785 0.210000
C222  C     C_R   0.881858 0.520409 0.426895 0.211036
C223  C     C_R   0.881871 0.479590 0.427178 0.210037
C224  C     C_R   0.118145 0.520412 0.573098 0.211040
O53   O     O_3   0.445243 0.739577 0.208680 -0.545547
C225  C     C_3   0.457358 0.699197 0.220726 -0.180215
H33   H     H_    0.431220 0.683029 0.164842 0.166933
H34   H     H_    0.444188 0.687292 0.257048 0.116285
H35   H     H_    0.509999 0.694232 0.252182 0.246358
O54   O     O_3   0.555188 0.262437 0.791176 -0.545902
C226  C     C_3   0.544512 0.302912 0.778884 -0.183939
H36   H     H_    0.558429 0.314119 0.742861 0.119760
H37   H     H_    0.570952 0.319178 0.834681 0.168379
H38   H     H_    0.491992 0.308612 0.746989 0.243724
O55   O     O_3   0.554743 0.739629 0.791323 -0.545542
C227  C     C_3   0.542583 0.699253 0.779274 -0.180141
H39   H     H_    0.568710 0.683083 0.835156 0.166917
H40   H     H_    0.555730 0.687331 0.742941 0.116203
H41   H     H_    0.489938 0.694310 0.747827 0.246383
O56   O     O_3   0.444775 0.262586 0.208831 -0.545895
C228  C     C_3   0.455338 0.303069 0.221119 -0.184039
H42   H     H_    0.441387 0.314223 0.257139 0.119952
H43   H     H_    0.428855 0.319337 0.165321 0.168388
H44   H     H_    0.507842 0.308827 0.253017 0.243673
O57   O     O_3   0.944806 0.237555 0.208823 -0.545919
C229  C     C_3   0.955474 0.197080 0.221111 -0.183907
H45   H     H_    0.929034 0.180816 0.165312 0.168363
H46   H     H_    0.941551 0.185874 0.257129 0.119775
H47   H     H_    0.007994 0.191376 0.253011 0.243710
O58   O     O_3   0.054746 0.760401 0.791319 -0.545543
C230  C     C_3   0.042608 0.800778 0.779256 -0.180160
H48   H     H_    0.055755 0.812684 0.742912 0.116240
H49   H     H_    0.068749 0.816954 0.835132 0.166915
H50   H     H_    0.989967 0.805733 0.747815 0.246393
O59   O     O_3   0.055238 0.237390 0.791171 -0.545903
C231  C     C_3   0.044706 0.196905 0.778909 -0.184098
H51   H     H_    0.071190 0.180646 0.834718 0.168400
H52   H     H_    0.058681 0.185751 0.742912 0.119996
H53   H     H_    0.992204 0.191133 0.746998 0.243632
O60   O     O_3   0.945262 0.760360 0.208677 -0.545534
C232  C     C_3   0.957432 0.800735 0.220730 -0.180153
H54   H     H_    0.944295 0.812658 0.257072 0.116176
H55   H     H_    0.931303 0.816907 0.164850 0.166924
H56   H     H_    0.010076 0.805674 0.252169 0.246401
O61   O     O_3   0.718619 0.867426 0.266858 -0.601235
C233  C     C_3   0.650398 0.867177 0.222170 -0.221382
H57   H     H_    0.632980 0.890430 0.241150 0.185940
H58   H     H_    0.632135 0.838259 0.224031 0.167323
H59   H     H_    0.629447 0.873072 0.160831 0.199990
O62   O     O_3   0.283166 0.134870 0.737294 -0.600067
C234  C     C_3   0.351384 0.135958 0.782153 -0.221956
H60   H     H_    0.368688 0.165095 0.779659 0.166802
H61   H     H_    0.369714 0.112925 0.763896 0.184840
H62   H     H_    0.372394 0.130327 0.843594 0.200028
O63   O     O_3   0.281144 0.867498 0.732919 -0.601112
C235  C     C_3   0.349373 0.867245 0.777702 -0.221497
H63   H     H_    0.366841 0.890493 0.758771 0.185997
H64   H     H_    0.367654 0.838324 0.775894 0.167202
H65   H     H_    0.370256 0.873147 0.839018 0.199961
O64   O     O_3   0.717205 0.134654 0.263212 -0.600047
C236  C     C_3   0.648978 0.135657 0.218265 -0.222473
H66   H     H_    0.631555 0.164765 0.220686 0.166653
H67   H     H_    0.630688 0.112586 0.236505 0.184989
H68   H     H_    0.628048 0.130021 0.156851 0.199988
O65   O     O_3   0.217461 0.365433 0.263407 -0.599846
C237  C     C_3   0.149226 0.364388 0.218326 -0.222411
H69   H     H_    0.130836 0.387419 0.236512 0.185002
H70   H     H_    0.131815 0.335256 0.220657 0.166490
H71   H     H_    0.128382 0.370056 0.156949 0.199971
O66   O     O_3   0.781655 0.632707 0.733449 -0.601346
C238  C     C_3   0.849870 0.632978 0.778046 -0.221168
H72   H     H_    0.868084 0.661899 0.776112 0.167454
H73   H     H_    0.867267 0.609723 0.759045 0.185875
H74   H     H_    0.870889 0.627102 0.839414 0.200011
O67   O     O_3   0.782444 0.365525 0.736385 -0.599916
C239  C     C_3   0.850680 0.364545 0.781455 -0.222697
H75   H     H_    0.869004 0.387611 0.763248 0.185081
H76   H     H_    0.868162 0.335438 0.779130 0.166475
H77   H     H_    0.871519 0.370204 0.842831 0.199962
O68   O     O_3   0.218428 0.632704 0.266614 -0.601282
C240  C     C_3   0.150209 0.632995 0.221970 -0.221159
H78   H     H_    0.132007 0.661922 0.223889 0.167404
H79   H     H_    0.132772 0.609749 0.240941 0.185885
H80   H     H_    0.129218 0.627117 0.160612 0.200001
N1    N     N_R   0.389056 0.896633 0.460050 0.238861
O69   O     O_R   0.362315 0.868632 0.409195 -0.345727
O70   O     O_R   0.369557 0.903417 0.501755 -0.376822
N2    N     N_R   0.610945 0.103443 0.540160 0.238817
O71   O     O_R   0.629436 0.097543 0.497161 -0.372755
O72   O     O_R   0.638156 0.130993 0.591985 -0.344308
N3    N     N_R   0.610943 0.896643 0.539951 0.238881
O73   O     O_R   0.637714 0.868660 0.590847 -0.345733
O74   O     O_R   0.630378 0.903389 0.498167 -0.376437
N4    N     N_R   0.389036 0.103479 0.459731 0.238668
O75   O     O_R   0.370769 0.097845 0.503027 -0.371891
O76   O     O_R   0.361694 0.130872 0.407575 -0.344145
N5    N     N_R   0.889180 0.396608 0.460349 0.239107
O77   O     O_R   0.862125 0.368812 0.409051 -0.344654
O78   O     O_R   0.870360 0.402964 0.502883 -0.373887
N6    N     N_R   0.110971 0.603372 0.540064 0.238904
O79   O     O_R   0.130296 0.596759 0.498127 -0.375897
O80   O     O_R   0.137781 0.631291 0.591098 -0.345624
N7    N     N_R   0.110819 0.396606 0.539632 0.239117
O81   O     O_R   0.137884 0.368820 0.590952 -0.344625
O82   O     O_R   0.129615 0.402943 0.497067 -0.373688
N8    N     N_R   0.889032 0.603367 0.459944 0.238897
O83   O     O_R   0.869724 0.596762 0.501901 -0.375810
O84   O     O_R   0.862212 0.631281 0.408896 -0.345634
N9    N     N_R   0.678871 0.959708 0.625241 0.263771
O85   O     O_R   0.722948 0.960861 0.614564 -0.312889
O86   O     O_R   0.691314 0.941938 0.685832 -0.289824
N10   N     N_R   0.321006 0.040263 0.376536 0.264433
O87   O     O_R   0.306403 0.056941 0.313971 -0.287444
O88   O     O_R   0.278856 0.040093 0.390368 -0.311403
N11   N     N_R   0.321134 0.959709 0.374764 0.263753
O89   O     O_R   0.276914 0.960980 0.385195 -0.313029
O90   O     O_R   0.308790 0.941889 0.314267 -0.289802
N12   N     N_R   0.678974 0.040277 0.623880 0.264300
O91   O     O_R   0.693113 0.057218 0.686007 -0.287952
O92   O     O_R   0.721481 0.039949 0.610617 -0.310997
N13   N     N_R   0.178933 0.459691 0.624140 0.264104
O93   O     O_R   0.221918 0.460313 0.611647 -0.310307
O94   O     O_R   0.192453 0.442304 0.685595 -0.288665
N14   N     N_R   0.821116 0.540279 0.374832 0.263811
O95   O     O_R   0.808478 0.557892 0.314009 -0.289799
O96   O     O_R   0.777295 0.539368 0.385945 -0.312725
N15   N     N_R   0.821074 0.459687 0.375778 0.264096
O97   O     O_R   0.778038 0.460320 0.388188 -0.310381
O98   O     O_R   0.807613 0.442286 0.314366 -0.288717
N16   N     N_R   0.178884 0.540282 0.625188 0.263794
O99   O     O_R   0.191486 0.557905 0.685983 -0.289827
O100  O     O_R   0.222738 0.539359 0.614133 -0.312671
O101  O     O_3   0.257313 0.752010 0.201622 -0.587424
C241  C     C_3   0.234019 0.714898 0.202208 -0.181158
H81   H     H_    0.207482 0.699339 0.145640 0.142640
H82   H     H_    0.199334 0.718809 0.215391 0.195075
H83   H     H_    0.274277 0.696187 0.247965 0.217301
O102  O     O_3   0.742445 0.245074 0.798308 -0.587216
C242  C     C_3   0.767445 0.281434 0.797273 -0.186706
H84   H     H_    0.801918 0.276230 0.784139 0.195066
H85   H     H_    0.794688 0.297234 0.853642 0.144326
H86   H     H_    0.728057 0.300476 0.751259 0.218088
O103  O     O_3   0.742690 0.751942 0.798381 -0.587468
C243  C     C_3   0.765941 0.714812 0.797811 -0.180918
H87   H     H_    0.792470 0.699263 0.854390 0.142623
H88   H     H_    0.800622 0.718692 0.784615 0.195103
H89   H     H_    0.725661 0.696106 0.752072 0.217257
O104  O     O_3   0.257574 0.244886 0.201695 -0.587229
C244  C     C_3   0.232465 0.281197 0.202752 -0.187097
H90   H     H_    0.198031 0.275912 0.215920 0.195061
H91   H     H_    0.205151 0.297000 0.146382 0.144466
H92   H     H_    0.271801 0.300268 0.248755 0.218064
O105  O     O_3   0.757562 0.254988 0.201696 -0.587306
C245  C     C_3   0.732532 0.218645 0.202758 -0.186507
H93   H     H_    0.705371 0.202798 0.146444 0.144430
H94   H     H_    0.697979 0.223888 0.215756 0.195107
H95   H     H_    0.771893 0.199631 0.248879 0.218152
O106  O     O_3   0.242693 0.748070 0.798387 -0.587355
C246  C     C_3   0.265941 0.785206 0.797838 -0.181313
H96   H     H_    0.300502 0.781349 0.784451 0.195015
H97   H     H_    0.292609 0.800698 0.854486 0.142530
H98   H     H_    0.225642 0.803953 0.752243 0.217199
O107  O     O_3   0.242413 0.255222 0.798297 -0.587359
C247  C     C_3   0.267574 0.218942 0.797194 -0.186732
H99   H     H_    0.294749 0.203059 0.853472 0.144649
H100  H     H_    0.302144 0.224291 0.784258 0.195140
H101  H     H_    0.228286 0.199917 0.751010 0.218145
O108  O     O_3   0.757306 0.748112 0.201613 -0.587421
C248  C     C_3   0.734086 0.785257 0.202157 -0.180994
H102  H     H_    0.699496 0.781415 0.215502 0.195067
H103  H     H_    0.707461 0.800758 0.145520 0.142550
H104  H     H_    0.774396 0.803990 0.247779 0.217172
N17   N     N_R   0.066103 0.751603 0.919653 0.238735
O109  O     O_R   0.034219 0.720456 0.880699 -0.326555
O110  O     O_R   0.039242 0.776188 0.937839 -0.335253
N18   N     N_R   0.933739 0.244705 0.080366 0.238929
O111  O     O_R   0.966975 0.275569 0.119145 -0.326665
O112  O     O_R   0.959492 0.219163 0.062281 -0.335027
N19   N     N_R   0.933898 0.751524 0.080346 0.238720
O113  O     O_R   0.965752 0.720372 0.119308 -0.326578
O114  O     O_R   0.960782 0.776086 0.062152 -0.335293
N20   N     N_R   0.066278 0.244446 0.919629 0.239019
O115  O     O_R   0.032944 0.275282 0.880838 -0.326394
O116  O     O_R   0.040605 0.218842 0.937720 -0.334837
N21   N     N_R   0.566258 0.255290 0.919635 0.238925
O117  O     O_R   0.533030 0.224423 0.880863 -0.326880
O118  O     O_R   0.540497 0.280830 0.937715 -0.335066
N22   N     N_R   0.433892 0.748389 0.080352 0.238752
O119  O     O_R   0.465788 0.779530 0.119322 -0.326448
O120  O     O_R   0.460744 0.723805 0.062153 -0.335218
N23   N     N_R   0.433726 0.255553 0.080365 0.239001
O121  O     O_R   0.467046 0.224708 0.119131 -0.326526
O122  O     O_R   0.459409 0.281159 0.062293 -0.334885
N24   N     N_R   0.566105 0.748467 0.919651 0.238728
O123  O     O_R   0.534244 0.779617 0.880684 -0.326420
O124  O     O_R   0.539228 0.723903 0.937851 -0.335265
O125  O     O_3   0.463752 0.602415 0.367904 -0.625408
C249  C     C_3   0.519231 0.609399 0.371954 -0.205909
H105  H     H_    0.542906 0.581738 0.374898 0.213952
H106  H     H_    0.554564 0.628412 0.422057 0.154351
H107  H     H_    0.504093 0.624715 0.318416 0.189679
O126  O     O_3   0.535248 0.397604 0.631672 -0.627280
C250  C     C_3   0.479374 0.390836 0.626892 -0.204332
H108  H     H_    0.444328 0.371686 0.576897 0.155875
H109  H     H_    0.455512 0.418567 0.623206 0.213796
H110  H     H_    0.494038 0.375765 0.680445 0.189464
O127  O     O_3   0.536233 0.602413 0.632095 -0.625409
C251  C     C_3   0.480752 0.609403 0.628037 -0.206003
H111  H     H_    0.457073 0.581744 0.625099 0.213946
H112  H     H_    0.445421 0.628413 0.577926 0.154284
H113  H     H_    0.495888 0.624725 0.681568 0.189720
O128  O     O_3   0.464744 0.397610 0.368330 -0.627291
C252  C     C_3   0.520619 0.390863 0.373102 -0.204583
H114  H     H_    0.555668 0.371706 0.423082 0.155845
H115  H     H_    0.544472 0.418604 0.376808 0.213825
H116  H     H_    0.505958 0.375812 0.319537 0.189442
O129  O     O_3   0.964743 0.102394 0.368322 -0.627712
C253  C     C_3   0.020610 0.109170 0.373091 -0.203359
H117  H     H_    0.044484 0.081441 0.376787 0.213834
H118  H     H_    0.055647 0.128328 0.423074 0.156252
H119  H     H_    0.005934 0.124235 0.319529 0.189317
O130  O     O_3   0.036263 0.897584 0.632102 -0.625090
C254  C     C_3   0.980787 0.890602 0.628059 -0.206376
H120  H     H_    0.945450 0.871590 0.577957 0.154182
H121  H     H_    0.957116 0.918265 0.625117 0.213912
H122  H     H_    0.995927 0.875287 0.681598 0.189751
O131  O     O_3   0.035253 0.102389 0.631668 -0.627727
C255  C     C_3   0.979377 0.109136 0.626893 -0.204013
H123  H     H_    0.955518 0.081396 0.623178 0.213860
H124  H     H_    0.944333 0.128297 0.576919 0.156075
H125  H     H_    0.994038 0.124184 0.680462 0.189358
O132  O     O_3   0.963761 0.897586 0.367902 -0.625099
C256  C     C_3   0.019242 0.890599 0.371960 -0.206676
H126  H     H_    0.054577 0.871591 0.422072 0.154039
H127  H     H_    0.042916 0.918260 0.374896 0.213902
H128  H     H_    0.004108 0.875277 0.318430 0.189822
O133  O     O_3   0.772125 0.930806 0.364810 -0.576995
C257  C     C_3   0.832031 0.937105 0.378978 -0.160358
H129  H     H_    0.842383 0.913945 0.352038 0.189409
H130  H     H_    0.872209 0.939215 0.442244 0.160071
H131  H     H_    0.829730 0.965175 0.352276 0.179773
O134  O     O_3   0.229654 0.070764 0.641573 -0.576477
C258  C     C_3   0.169554 0.064710 0.627053 -0.159585
H132  H     H_    0.129834 0.061501 0.563855 0.160839
H133  H     H_    0.158282 0.088564 0.651860 0.189652
H134  H     H_    0.172163 0.037269 0.655649 0.179427
O135  O     O_3   0.227821 0.930875 0.634917 -0.577060
C259  C     C_3   0.167899 0.937222 0.620679 -0.160550
H135  H     H_    0.157552 0.914128 0.647734 0.189490
H136  H     H_    0.127728 0.939256 0.557399 0.159996
H137  H     H_    0.170174 0.965344 0.647217 0.179838
O136  O     O_3   0.770569 0.070599 0.359133 -0.576421
C260  C     C_3   0.830677 0.064533 0.373682 -0.159629
H138  H     H_    0.870409 0.061418 0.436900 0.160617
H139  H     H_    0.841894 0.088333 0.348720 0.189581
H140  H     H_    0.828119 0.037040 0.345257 0.179421
O137  O     O_3   0.270637 0.429474 0.359405 -0.576389
C261  C     C_3   0.330757 0.435574 0.374002 -0.159516
H141  H     H_    0.341957 0.411825 0.348934 0.189625
H142  H     H_    0.370486 0.438620 0.437235 0.160541
H143  H     H_    0.328228 0.463111 0.345709 0.179412
O138  O     O_3   0.727996 0.569298 0.635614 -0.576941
C262  C     C_3   0.668103 0.563041 0.621500 -0.160243
H144  H     H_    0.627929 0.560834 0.558249 0.160172
H145  H     H_    0.657717 0.586273 0.648286 0.189365
H146  H     H_    0.670444 0.535031 0.648396 0.179728
O139  O     O_3   0.729263 0.429539 0.640299 -0.576382
C263  C     C_3   0.669147 0.435633 0.625710 -0.159574
H147  H     H_    0.657974 0.411896 0.650830 0.189559
H148  H     H_    0.629406 0.438651 0.562473 0.160469
H149  H     H_    0.671660 0.463183 0.653957 0.179419
O140  O     O_3   0.272002 0.569286 0.364440 -0.576962
C264  C     C_3   0.331901 0.563011 0.378581 -0.160296
H150  H     H_    0.372068 0.560818 0.441837 0.160159
H151  H     H_    0.342298 0.586227 0.351777 0.189404
H152  H     H_    0.329561 0.534989 0.351722 0.179753
O141  O     O_3   0.827441 0.922365 0.522382 -0.607654
C265  C     C_3   0.777112 0.945417 0.510350 -0.059632
H153  H     H_    0.739875 0.927786 0.507863 0.212463
H154  H     H_    0.753735 0.963154 0.456826 0.159212
H155  H     H_    0.798592 0.965562 0.560163 0.201643
O142  O     O_3   0.174562 0.077557 0.483714 -0.606880
C266  C     C_3   0.225131 0.054269 0.496924 -0.064434
H156  H     H_    0.248292 0.036987 0.550960 0.163479
H157  H     H_    0.262494 0.071633 0.499182 0.210068
H158  H     H_    0.203951 0.033694 0.447827 0.197395
O143  O     O_3   0.172623 0.922382 0.477398 -0.607617
C267  C     C_3   0.223003 0.945394 0.489468 -0.059328
H159  H     H_    0.260217 0.927731 0.491968 0.212640
H160  H     H_    0.246400 0.963127 0.542998 0.158846
H161  H     H_    0.201575 0.965542 0.439666 0.201983
O144  O     O_3   0.825449 0.077531 0.516888 -0.606753
C268  C     C_3   0.774820 0.054310 0.503688 -0.064015
H162  H     H_    0.751594 0.037028 0.449643 0.163078
H163  H     H_    0.737520 0.071733 0.501452 0.210422
H164  H     H_    0.795946 0.033738 0.552782 0.197647
O145  O     O_3   0.325390 0.422469 0.517098 -0.606653
C269  C     C_3   0.274724 0.445638 0.503921 -0.063879
H165  H     H_    0.237496 0.428174 0.501759 0.210782
H166  H     H_    0.251417 0.462906 0.449845 0.162824
H167  H     H_    0.295825 0.466221 0.552993 0.197707
O146  O     O_3   0.672563 0.577641 0.477978 -0.607680
C270  C     C_3   0.722854 0.554543 0.490022 -0.059992
H168  H     H_    0.746169 0.536799 0.543527 0.159609
H169  H     H_    0.760148 0.572134 0.492551 0.212171
H170  H     H_    0.701346 0.534405 0.440196 0.201347
O147  O     O_3   0.674556 0.422480 0.482633 -0.606660
C271  C     C_3   0.725231 0.445636 0.495798 -0.063682
H171  H     H_    0.762453 0.428158 0.497973 0.210881
H172  H     H_    0.748544 0.462912 0.549864 0.162688
H173  H     H_    0.704139 0.466211 0.446714 0.197832
O148  O     O_3   0.327391 0.577630 0.522061 -0.607648
C272  C     C_3   0.277079 0.554543 0.509991 -0.059914
H174  H     H_    0.253769 0.536799 0.456487 0.159495
H175  H     H_    0.239785 0.572143 0.507444 0.212197
H176  H     H_    0.298563 0.534404 0.559815 0.201469
N25   N     N_R   0.832176 0.848875 0.584194 0.232191
O149  O     O_R   0.865425 0.817704 0.621085 -0.427738
O150  O     O_R   0.827980 0.876103 0.622535 -0.280452
N26   N     N_R   0.169163 0.150300 0.419245 0.231603
O151  O     O_R   0.173847 0.122662 0.381991 -0.278974
O152  O     O_R   0.135262 0.181091 0.381114 -0.425821
N27   N     N_R   0.167885 0.848858 0.415690 0.232263
O153  O     O_R   0.134633 0.817686 0.378811 -0.427665
O154  O     O_R   0.172135 0.876063 0.377353 -0.280317
N28   N     N_R   0.830842 0.150362 0.581102 0.231695
O155  O     O_R   0.826126 0.122774 0.618417 -0.278838
O156  O     O_R   0.864720 0.181174 0.619150 -0.425285
N29   N     N_R   0.330768 0.349591 0.581179 0.231778
O157  O     O_R   0.364646 0.318775 0.619200 -0.425520
O158  O     O_R   0.326008 0.377149 0.618506 -0.278917
N30   N     N_R   0.667806 0.651077 0.415991 0.232119
O159  O     O_R   0.671977 0.623815 0.377684 -0.280470
O160  O     O_R   0.634537 0.682234 0.379047 -0.427818
N31   N     N_R   0.669184 0.349571 0.418648 0.231792
O161  O     O_R   0.635326 0.318742 0.380671 -0.425166
O162  O     O_R   0.673932 0.377114 0.381284 -0.278850
N32   N     N_R   0.332154 0.651069 0.584036 0.232155
O163  O     O_R   0.327953 0.623812 0.622326 -0.280381
O164  O     O_R   0.365430 0.682223 0.620989 -0.427835

loop_
_geom_bond_atom_site_label_1
_geom_bond_atom_site_label_2
_geom_bond_distance
_ccdc_geom_bond_type
N5    O78   1.300966 A    
C238  H74   1.109224 S    
C134  N30   1.441701 S    
C242  H84   1.107936 S    
C127  C167  1.412011 A    
C1    C204  1.454786 S    
N3    O74   1.300962 A    
C51   C75   1.400765 A    
C2    C203  1.454838 S    
C52   C76   1.400785 A    
C142  C185  1.478391 S    
Zn5   O51   1.949620 S    
C42   C50   1.406216 A    
C90   O126  1.385028 S    
C121  O141  1.381650 S    
C94   C100  1.404954 A    
O133  C257  1.407319 S    
C124  O144  1.381652 S    
O49   C21   1.277532 A    
C138  C189  1.478421 S    
C175  H31   1.085271 S    
C30   C70   1.414239 A    
C8    C97   1.452982 S    
N30   O160  1.300792 A    
O130  C254  1.410281 S    
C193  C207  1.413014 A    
C125  O145  1.381661 S    
C119  H15   1.082864 S    
C269  H165  1.114729 S    
C71   C84   1.418121 A    
C117  H13   1.082864 S    
C259  H135  1.113670 S    
C256  H126  1.112263 S    
O146  C270  1.410382 S    
O60   C232  1.411354 S    
C130  C138  1.414047 A    
C198  C212  1.413006 A    
C199  C209  1.413037 A    
Zn11  O1    1.961847 S    
O131  C255  1.410302 S    
C235  H64   1.112341 S    
C251  H111  1.112569 S    
N19   O114  1.301204 A    
C263  H149  1.108281 S    
C225  H33   1.113499 S    
C106  C118  1.403088 A    
C120  H16   1.082842 S    
C79   C87   1.391151 A    
Zn16  O28   1.936922 S    
C93   O129  1.385029 S    
C146  C154  1.399916 A    
C235  H65   1.109224 S    
Zn4   O2    1.942698 S    
C122  C130  1.413430 A    
C52   C60   1.413073 A    
C75   C83   1.390948 A    
C12   C181  1.458301 S    
C268  H163  1.114775 S    
N4    O76   1.301570 A    
C150  C158  1.399715 A    
C31   C39   1.404318 A    
C74   H2    1.082869 S    
C194  N2    1.437811 S    
C105  C111  1.414044 A    
C232  H56   1.108087 S    
C221  N13   1.435448 S    
C90   C98   1.404896 A    
N21   O118  1.301186 A    
O54   C226  1.411328 S    
C173  C181  1.396836 A    
O103  C243  1.414799 S    
C206  C214  1.421135 A    
C207  C219  1.416031 A    
O56   C228  1.411324 S    
C28   C68   1.414588 A    
C208  C220  1.416657 A    
C25   C33   1.404440 A    
C44   C52   1.406237 A    
C265  H153  1.114613 S    
C54   C78   1.400753 A    
C210  C216  1.420507 A    
O22   C10   1.286095 A    
C58   C61   1.415569 A    
C244  H90   1.107947 S    
C153  C161  1.400706 A    
C231  H53   1.108352 S    
O47   C19   1.277290 A    
C129  N25   1.441715 S    
Zn12  O24   1.936922 S    
C260  H140  1.108302 S    
C237  H70   1.112191 S    
C132  C140  1.414068 A    
C266  H157  1.114819 S    
C78   H6    1.082903 S    
C125  C165  1.412028 A    
O59   C231  1.411316 S    
C78   C86   1.390950 A    
Zn16  O4    1.961846 S    
C169  C190  1.389710 A    
C225  H35   1.108100 S    
C230  H49   1.113501 S    
O134  C258  1.407498 S    
C128  C168  1.411872 A    
O43   C23   1.283858 A    
Zn3   O15   1.938237 S    
C151  H23   1.081783 S    
C272  H174  1.110182 S    
Zn4   O16   1.938237 S    
O45   C17   1.277315 A    
Zn5   O3    1.942684 S    
C73   H1    1.082898 S    
N10   O87   1.301031 A    
N2    O72   1.301579 A    
Zn7   O3    1.942698 S    
C252  H115  1.112725 S    
N25   O149  1.300791 A    
C256  H128  1.108111 S    
C237  H71   1.109226 S    
C126  C166  1.411870 A    
C145  H17   1.081909 S    
N27   O153  1.300791 A    
C62   C70   1.423422 A    
Zn8   O34   1.946470 S    
N7    O81   1.301597 A    
O11   C3    1.285414 A    
C160  C168  1.400687 A    
O38   C18   1.283825 A    
N32   O163  1.300876 A    
C244  H92   1.108300 S    
C113  H9    1.082842 S    
C28   C36   1.404326 A    
C257  H129  1.113698 S    
N6    O79   1.300962 A    
C94   C108  1.404953 A    
C87   N23   1.434534 S    
C95   C105  1.404941 A    
C147  C155  1.399713 A    
C239  H76   1.112206 S    
C227  H39   1.113502 S    
C265  H155  1.107415 S    
C262  H146  1.108229 S    
C211  C223  1.416543 A    
O63   C235  1.409844 S    
C249  H105  1.112566 S    
O145  C269  1.410492 S    
C84   N20   1.434534 S    
C30   C38   1.404453 A    
C259  H137  1.108258 S    
Zn10  O22   1.936908 S    
C125  C133  1.413422 A    
C255  H124  1.112208 S    
O105  C245  1.414531 S    
C141  C149  1.399345 A    
N1    O69   1.301603 A    
C174  C185  1.389697 A    
O33   C15   1.276599 A    
C245  H93   1.113543 S    
C130  N26   1.441569 S    
C77   H5    1.082862 S    
Zn10  O2    1.961900 S    
C243  H89   1.108519 S    
O108  C248  1.414801 S    
O52   C24   1.277295 A    
Zn3   O1    1.942698 S    
C270  H170  1.107401 S    
C88   N24   1.434554 S    
C116  H12   1.082863 S    
C9    C184  1.458232 S    
O58   C230  1.411358 S    
C10   C183  1.458296 S    
C243  H87   1.113465 S    
O55   C227  1.411354 S    
C102  C110  1.414052 A    
C212  C216  1.420493 A    
C6    C99   1.453140 S    
C61   C69   1.423566 A    
O128  C252  1.410310 S    
C184  C192  1.414016 A    
C96   O132  1.385144 S    
Zn5   O35   1.946488 S    
O37   C17   1.284242 A    
C258  H133  1.113863 S    
O61   C233  1.409849 S    
C134  C142  1.414221 A    
C234  H60   1.112176 S    
O64   C236  1.409926 S    
N11   O90   1.301071 A    
C132  N28   1.441587 S    
N16   O100  1.300400 A    
C114  C115  1.390534 A    
C211  C215  1.420748 A    
C163  O135  1.381128 S    
O143  C267  1.410369 S    
C3    C202  1.454817 S    
N14   O96   1.300414 A    
N26   O151  1.300891 A    
C249  H107  1.108104 S    
C240  H78   1.112330 S    
C209  C215  1.420764 A    
C230  H50   1.108094 S    
O8    C2    1.285440 A    
N9    O85   1.300422 A    
C46   O106  1.386595 S    
C92   C98   1.404891 A    
C242  H85   1.113523 S    
O18   C8    1.274029 A    
C37   C45   1.403258 A    
C263  H148  1.112005 S    
C25   C65   1.414224 A    
C251  H113  1.108112 S    
O16   C6    1.274075 A    
O14   C6    1.274090 A    
C250  H110  1.107973 S    
C223  N15   1.435463 S    
Zn15  O9    1.939847 S    
C261  H143  1.108291 S    
Zn13  O41   1.939840 S    
C76   H4    1.082866 S    
O147  C271  1.410489 S    
Zn12  O6    1.939847 S    
C271  H171  1.114719 S    
C56   C64   1.412890 A    
C43   C51   1.405930 A    
Zn16  O44   1.939848 S    
C272  H176  1.107407 S    
N12   O91   1.301016 A    
C41   O101  1.386598 S    
O17   C7    1.274088 A    
O107  C247  1.414510 S    
Zn5   O17   1.938244 S    
C236  H68   1.109226 S    
C123  O143  1.381651 S    
C241  H81   1.113461 S    
O9    C3    1.285398 A    
O35   C13   1.276613 A    
C169  H25   1.085288 S    
C128  O148  1.381650 S    
C145  C153  1.399711 A    
C221  C224  1.402438 A    
C171  H27   1.085289 S    
C153  O61   1.381806 S    
C139  C192  1.478434 S    
C7    C98   1.453133 S    
C31   C71   1.414581 A    
C152  C160  1.399721 A    
C227  H41   1.108093 S    
C29   C69   1.414564 A    
C247  H99   1.113552 S    
C264  H151  1.113720 S    
C27   C35   1.404444 A    
C228  H43   1.113431 S    
C70   C81   1.418077 A    
C32   C40   1.404452 A    
C194  C202  1.401828 A    
O102  C242  1.414542 S    
C65   C86   1.418077 A    
C80   H8    1.082901 S    
C217  N9    1.435749 S    
C36   C44   1.403248 A    
C68   C87   1.418122 A    
Zn9   O7    1.939820 S    
N28   O156  1.300880 A    
Zn10  O8    1.939819 S    
C166  O138  1.381113 S    
C177  C185  1.414024 A    
Zn11  O5    1.939847 S    
C67   C88   1.418066 A    
O5    C1    1.285427 A    
N14   O95   1.301005 A    
C148  C156  1.399876 A    
C179  C187  1.414020 A    
O36   C14   1.276659 A    
C229  H46   1.112264 S    
C254  H120  1.112259 S    
C234  H62   1.109224 S    
C267  H159  1.114592 S    
C176  H32   1.085285 S    
C241  H83   1.108510 S    
N18   O112  1.301188 A    
C254  H122  1.108105 S    
C103  C115  1.403084 A    
C106  C112  1.414190 A    
C248  H103  1.113442 S    
C233  H59   1.109224 S    
C58   C66   1.423566 A    
O138  C262  1.407330 S    
C104  C110  1.414057 A    
C150  H22   1.081923 S    
C44   O104  1.386537 S    
C173  H29   1.085269 S    
C91   O127  1.385144 S    
C206  C218  1.416720 A    
C217  C220  1.402297 A    
N18   O111  1.301387 A    
C69   C82   1.418115 A    
C90   C104  1.404952 A    
C193  C201  1.402094 A    
N23   O121  1.301383 A    
C60   C63   1.415586 A    
C32   O60   1.384303 S    
C240  H80   1.109224 S    
C121  C161  1.411854 A    
C229  H47   1.108347 S    
C236  H67   1.113979 S    
Zn9   O1    1.961902 S    
C238  H73   1.113946 S    
C212  C224  1.416235 A    
O68   C240  1.409854 S    
N27   O154  1.300875 A    
C81   N17   1.434544 S    
C250  H108  1.112217 S    
C251  H112  1.112256 S    
C50   C58   1.413055 A    
C167  O139  1.381131 S    
C254  H121  1.112565 S    
Zn1   O1    1.942684 S    
C142  C150  1.399394 A    
C170  C189  1.389479 A    
C91   C97   1.404965 A    
Zn2   O14   1.938243 S    
Zn6   O36   1.946489 S    
C141  C186  1.478416 S    
N6    O80   1.301599 A    
N24   O123  1.301371 A    
C29   C37   1.404330 A    
C76   C84   1.391151 A    
C79   H7    1.082860 S    
O30   C12   1.276571 A    
C20   C37   1.460886 S    
C140  C148  1.399360 A    
C219  N11   1.435805 S    
C269  H166  1.110286 S    
C89   C103  1.404951 A    
C126  O146  1.381649 S    
C45   O105  1.386537 S    
C259  H136  1.112014 S    
O34   C16   1.276636 A    
O39   C19   1.284223 A    
O106  C246  1.414806 S    
C226  H38   1.108340 S    
C200  N8    1.438139 S    
C63   C71   1.423562 A    
O126  C250  1.410313 S    
C154  O62   1.382068 S    
C169  C177  1.396799 A    
O104  C244  1.414528 S    
C138  C146  1.399361 A    
C243  H88   1.107772 S    
O31   C9    1.276653 A    
C158  O66   1.381815 S    
C128  C136  1.413461 A    
C225  H34   1.112173 S    
N29   O158  1.300885 A    
N17   O109  1.301366 A    
C85   N21   1.434545 S    
O6    C2    1.285425 A    
C247  H101  1.108257 S    
C96   C100  1.404962 A    
C133  C141  1.414085 A    
N22   O119  1.301363 A    
C269  H167  1.107110 S    
C51   C59   1.412896 A    
C268  H162  1.110281 S    
O10   C4    1.285390 A    
C261  H142  1.112004 S    
C246  H96   1.107772 S    
Zn13  O25   1.936907 S    
C246  H98   1.108540 S    
C149  C157  1.399883 A    
C127  C135  1.413431 A    
O50   C22   1.277321 A    
O148  C272  1.410381 S    
Zn15  O3    1.961847 S    
C232  H55   1.113504 S    
C253  H117  1.112734 S    
O41   C21   1.283856 A    
C59   C67   1.423422 A    
C222  N14   1.435674 S    
C60   C68   1.423566 A    
O125  C249  1.410273 S    
C102  C114  1.403046 A    
C265  H154  1.110183 S    
N13   O94   1.300987 A    
N8    O83   1.300962 A    
Zn3   O45   1.949636 S    
C33   C41   1.403592 A    
N31   O161  1.300879 A    
C118  H14   1.082842 S    
C267  H161  1.107426 S    
C127  O147  1.381657 S    
O27   C15   1.286064 A    
C205  C213  1.420472 A    
C136  C144  1.414218 A    
C35   C43   1.403594 A    
Zn8   O20   1.938237 S    
C260  H139  1.113854 S    
C233  H57   1.113943 S    
C159  C167  1.400606 A    
C129  C137  1.414237 A    
C230  H48   1.112168 S    
C107  C119  1.403053 A    
C162  O134  1.381164 S    
C207  C213  1.420429 A    
C17   C40   1.461187 S    
C105  C117  1.403048 A    
N32   O164  1.300794 A    
C42   O102  1.386541 S    
C220  N12   1.435239 S    
N10   O88   1.300514 A    
C222  C223  1.402428 A    
C121  C129  1.413466 A    
C215  C216  1.412636 A    
C172  H28   1.085270 S    
C252  H114  1.112216 S    
C256  H127  1.112563 S    
O12   C4    1.285408 A    
C139  C147  1.399395 A    
O62   C234  1.409938 S    
N20   O116  1.301190 A    
C244  H91   1.113518 S    
Zn16  O10   1.939847 S    
Zn14  O42   1.939842 S    
C257  H130  1.112005 S    
C92   O128  1.385026 S    
N15   O97   1.300529 A    
Zn14  O4    1.961900 S    
C47   C55   1.406247 A    
N30   O159  1.300878 A    
C92   C102  1.404942 A    
C227  H40   1.112178 S    
C262  H145  1.113726 S    
Zn13  O3    1.961902 S    
O140  C264  1.407326 S    
C249  H106  1.112256 S    
C154  C162  1.400545 A    
Zn2   O32   1.946489 S    
O141  C265  1.410373 S    
O21   C9    1.286014 A    
Zn3   O29   1.946471 S    
C258  H132  1.111979 S    
C195  N3    1.438222 S    
O136  C260  1.407479 S    
C172  C191  1.389499 A    
O23   C11   1.286009 A    
C41   C49   1.405938 A    
C196  C202  1.401816 A    
C226  H36   1.112264 S    
C180  C188  1.414124 A    
C107  C111  1.414052 A    
C170  H26   1.085267 S    
N12   O92   1.300515 A    
O46   C18   1.277553 A    
C165  O137  1.381141 S    
C175  C183  1.396840 A    
C161  O133  1.381116 S    
O51   C23   1.277498 A    
C27   C67   1.414220 A    
C197  C203  1.402059 A    
O29   C11   1.276634 A    
C239  H75   1.113978 S    
O42   C22   1.284230 A    
C72   C83   1.418066 A    
C208  C214  1.421056 A    
C24   C33   1.461158 S    
C91   C101  1.404961 A    
C176  C184  1.396809 A    
C117  C120  1.390531 A    
C268  H164  1.107107 S    
C135  N31   1.441605 S    
C176  C187  1.389706 A    
N4    O75   1.301030 A    
C34   C42   1.403266 A    
C258  H134  1.108328 S    
Zn9   O37   1.939840 S    
Zn11  O39   1.939849 S    
C114  H10   1.082864 S    
C245  H95   1.108279 S    
O65   C237  1.409927 S    
N29   O157  1.300878 A    
N20   O115  1.301385 A    
C160  O68   1.381818 S    
C48   C56   1.405922 A    
C55   C63   1.413081 A    
C164  O136  1.381148 S    
Zn15  O43   1.939849 S    
Zn1   O31   1.946488 S    
C53   C61   1.413058 A    
O28   C16   1.286019 A    
C205  C217  1.416084 A    
N26   O152  1.300876 A    
C94   O130  1.385142 S    
O67   C239  1.409919 S    
C271  H173  1.107118 S    
C75   H3    1.082898 S    
O66   C238  1.409853 S    
C210  C222  1.416246 A    
C194  C208  1.413003 A    
C231  H51   1.113433 S    
C64   C72   1.423423 A    
Zn6   O4    1.942687 S    
C82   N18   1.434536 S    
C157  C165  1.400610 A    
C40   C48   1.403601 A    
C5    C100  1.452979 S    
C213  C214  1.412764 A    
C237  H69   1.113979 S    
C111  C112  1.410527 A    
C108  C120  1.403083 A    
C143  C188  1.478411 S    
C122  O142  1.381655 S    
C266  H158  1.107093 S    
C257  H131  1.108236 S    
C250  H109  1.112727 S    
C144  C187  1.478399 S    
C109  C110  1.410527 A    
C174  H30   1.085287 S    
C171  C179  1.396809 A    
C271  H172  1.110284 S    
C89   O125  1.385145 S    
O53   C225  1.411353 S    
C22   C35   1.461170 S    
C272  H175  1.114641 S    
O40   C20   1.283837 A    
Zn15  O27   1.936923 S    
C66   C85   1.418110 A    
C96   C106  1.404963 A    
C195  C201  1.402108 A    
O13   C5    1.274025 A    
N2    O71   1.301022 A    
C252  H116  1.107952 S    
C137  C145  1.399388 A    
N3    O73   1.301596 A    
N25   O150  1.300877 A    
C241  H82   1.107788 S    
C80   C88   1.390945 A    
C135  C143  1.414090 A    
O44   C24   1.284203 A    
C199  C203  1.402075 A    
O48   C20   1.277512 A    
C200  C204  1.402106 A    
C95   O131  1.385024 S    
C155  C163  1.400732 A    
N23   O122  1.301190 A    
Zn8   O50   1.949634 S    
C26   O54   1.384352 S    
C197  N5    1.438007 S    
Zn2   O2    1.942687 S    
C13   C180  1.458285 S    
C171  C192  1.389730 A    
O7    C1    1.285425 A    
C49   C73   1.400760 A    
C270  H168  1.110181 S    
O26   C14   1.286024 A    
C239  H77   1.109224 S    
C151  C159  1.399856 A    
C74   C82   1.391137 A    
O139  C263  1.407460 S    
C15   C178  1.458279 S    
Zn6   O18   1.938243 S    
C247  H100  1.107956 S    
C264  H150  1.112000 S    
N13   O93   1.300537 A    
C73   C81   1.390954 A    
C238  H72   1.112332 S    
Zn4   O30   1.946470 S    
C228  H42   1.112264 S    
C11   C182  1.458238 S    
C118  C119  1.390545 A    
N21   O117  1.301388 A    
Zn8   O4    1.942698 S    
C38   C46   1.403604 A    
C196  N4    1.437681 S    
C255  H123  1.112733 S    
C115  H11   1.082841 S    
N1    O70   1.300963 A    
C27   O55   1.384306 S    
C198  N6    1.438142 S    
O15   C5    1.274038 A    
Zn7   O49   1.949636 S    
N15   O98   1.300986 A    
C101  C109  1.414188 A    
C89   C97   1.404955 A    
N19   O113  1.301373 A    
C170  C178  1.396868 A    
C43   O103  1.386587 S    
C147  H19   1.081910 S    
O32   C10   1.276596 A    
C123  C163  1.411849 A    
C59   C64   1.415206 A    
C93   C107  1.404945 A    
C47   O107  1.386536 S    
O20   C8    1.274038 A    
C172  C180  1.396854 A    
C245  H94   1.107944 S    
C57   C62   1.415206 A    
C197  C211  1.413017 A    
C156  O64   1.382034 S    
O142  C266  1.410499 S    
N7    O82   1.300967 A    
C267  H160  1.110181 S    
O24   C12   1.286098 A    
C18   C39   1.460865 S    
C32   C72   1.414227 A    
C248  H102  1.107758 S    
Zn14  O26   1.936908 S    
C77   C85   1.391139 A    
Zn6   O52   1.949622 S    
N16   O99   1.301018 A    
O25   C13   1.286077 A    
C124  C132  1.413432 A    
C183  C191  1.414138 A    
C260  H138  1.111993 S    
C86   N22   1.434543 S    
N31   O162  1.300887 A    
Zn1   O47   1.949620 S    
C123  C131  1.413463 A    
C240  H79   1.113945 S    
Zn2   O48   1.949622 S    
C29   O57   1.384351 S    
N9    O86   1.301056 A    
C93   C99   1.404901 A    
C242  H86   1.108305 S    
C101  C113  1.403088 A    
C83   N19   1.434557 S    
C263  H147  1.113843 S    
Zn7   O33   1.946471 S    
C270  H169  1.114647 S    
C104  C116  1.403050 A    
C131  N27   1.441720 S    
C266  H156  1.110278 S    
C133  N29   1.441599 S    
C234  H61   1.113987 S    
O129  C253  1.410305 S    
C95   C99   1.404890 A    
C108  C112  1.414192 A    
C157  O65   1.382044 S    
C231  H52   1.112268 S    
C113  C116  1.390544 A    
N24   O124  1.301205 A    
C218  C219  1.402265 A    
C200  C210  1.413013 A    
C182  C190  1.414024 A    
C156  C164  1.400562 A    
C218  N10   1.435087 S    
C16   C177  1.458258 S    
Zn9   O21   1.936907 S    
C45   C53   1.406222 A    
C198  C204  1.402102 A    
Zn11  O23   1.936923 S    
C226  H37   1.113434 S    
C39   C47   1.403229 A    
Zn12  O40   1.939848 S    
C173  C186  1.389477 A    
C28   O56   1.384343 S    
C30   O58   1.384297 S    
C149  H21   1.081773 S    
O132  C256  1.410285 S    
C55   C79   1.400790 A    
C175  C188  1.389500 A    
C168  O140  1.381118 S    
C21   C36   1.460888 S    
C53   C77   1.400793 A    
C146  H18   1.081784 S    
C14   C179  1.458268 S    
Zn1   O13   1.938244 S    
C23   C34   1.460894 S    
C136  N32   1.441699 S    
C122  C162  1.412100 A    
C264  H152  1.108237 S    
C209  C221  1.416566 A    
C235  H63   1.113941 S    
N22   O120  1.301212 A    
N5    O77   1.301594 A    
C228  H44   1.108341 S    
C57   C65   1.423423 A    
C155  O63   1.381805 S    
C56   C80   1.400760 A    
C195  C205  1.413039 A    
Zn7   O19   1.938237 S    
C255  H125  1.107950 S    
C178  C186  1.414134 A    
O19   C7    1.274074 A    
C193  N1    1.438264 S    
C50   C74   1.400787 A    
O135  C259  1.407317 S    
C131  C139  1.414241 A    
C25   O53   1.384299 S    
C246  H97   1.113428 S    
N28   O155  1.300887 A    
C199  N7    1.438003 S    
C143  C151  1.399348 A    
C232  H54   1.112176 S    
C253  H118  1.112210 S    
C126  C134  1.413464 A    
C140  C191  1.478409 S    
Zn4   O46   1.949634 S    
C152  H24   1.081927 S    
O127  C251  1.410277 S    
N17   O110  1.301210 A    
C262  H144  1.111995 S    
C4    C201  1.454683 S    
C48   O108  1.386585 S    
C174  C182  1.396798 A    
C229  H45   1.113434 S    
C236  H66   1.112199 S    
C19   C38   1.461183 S    
N8    O84   1.301604 A    
C137  C190  1.478408 S    
C196  C206  1.413072 A    
O144  C268  1.410494 S    
C26   C66   1.414567 A    
C158  C166  1.400680 A    
C103  C109  1.414189 A    
C261  H141  1.113842 S    
O101  C241  1.414802 S    
Zn10  O38   1.939842 S    
C248  H104  1.108541 S    
C233  H58   1.112339 S    
C144  C152  1.399400 A    
N11   O89   1.300412 A    
C46   C54   1.405928 A    
C159  O67   1.382021 S    
C253  H119  1.107968 S    
O137  C261  1.407464 S    
Zn12  O2    1.961846 S    
C148  H20   1.081793 S    
Zn13  O11   1.939820 S    
C224  N16   1.435680 S    
C124  C164  1.412048 A    
Zn14  O12   1.939819 S    
O57   C229  1.411322 S    
C49   C57   1.412916 A    
C31   O59   1.384343 S    
C54   C62   1.412909 A    
C26   C34   1.404331 A    
C181  C189  1.414159 A    
