data_mof_unit_140.cif
_audit_creation_date              2012-12-11T15:22:43-0500
_audit_creation_method            fapswitch 2.2
_symmetry_space_group_name_H-M    P1
_symmetry_Int_Tables_number       1
_space_group_crystal_system       triclinic
_cell_length_a                    22.424943
_cell_length_b                    12.984787
_cell_length_c                    27.023336
_cell_angle_alpha                 90.189335
_cell_angle_beta                  90.675234
_cell_angle_gamma                 90.247139
_cell_volume                      7868.07505249

loop_
_atom_site_label
_atom_site_type_symbol
_atom_type_description
_atom_site_fract_x
_atom_site_fract_y
_atom_site_fract_z
_atom_type_partial_charge
C1    C     C_R   0.720852 0.345669 0.178324 0.560645
C2    C     C_R   0.478690 0.257631 0.897596 -0.137716
C3    C     C_R   0.994519 0.582896 0.550098 -0.106772
C4    C     C_R   0.485967 0.109152 0.390975 0.263759
C5    C     C_R   0.488500 0.075892 0.602128 0.255815
C6    C     C_R   0.984223 0.614717 0.390427 0.260541
C7    C     C_R   0.985008 0.575335 0.600882 0.251925
C8    C     C_R   0.741823 0.959575 0.371301 0.025709
C9    C     C_R   0.260575 0.959305 0.627859 0.017331
C10   C     C_R   0.239507 0.460750 0.371082 0.044840
C11   C     C_R   0.763693 0.467033 0.625936 0.015821
C12   C     C_R   0.731676 0.855562 0.382028 -0.141196
C13   C     C_R   0.019678 0.756639 0.103224 -0.137386
C14   C     C_R   0.311654 0.947607 0.598940 -0.126563
C15   C     C_R   0.269677 0.368901 0.380624 -0.166459
C16   C     C_R   0.814880 0.474508 0.596724 -0.124095
C17   C     C_R   0.740456 0.820653 0.430369 -0.072833
C18   C     C_R   0.306047 0.932896 0.548597 -0.068455
C19   C     C_R   0.275179 0.334732 0.429277 -0.072520
C20   C     C_R   0.810719 0.462505 0.546111 -0.068865
C21   C     C_R   0.758275 0.890544 0.467417 0.111561
C22   C     C_R   0.249410 0.926539 0.526732 0.111196
C23   C     C_R   0.250764 0.393210 0.467806 0.083833
C24   C     C_R   0.978686 0.757631 0.897598 -0.137680
C25   C     C_R   0.755592 0.440330 0.524033 0.110941
C26   C     C_R   0.766119 0.994657 0.456642 -0.080536
C27   C     C_R   0.198081 0.931618 0.555702 -0.081578
C28   C     C_R   0.220298 0.484611 0.457658 -0.065008
C29   C     C_R   0.704531 0.428180 0.553093 -0.082894
C30   C     C_R   0.758443 0.028736 0.408799 -0.114438
C31   C     C_R   0.203679 0.948563 0.606388 -0.150172
C32   C     C_R   0.214489 0.518018 0.409397 -0.070600
C33   C     C_R   0.708497 0.442391 0.604161 -0.157042
C34   C     C_R   0.824169 0.868448 0.540022 0.201023
C35   C     C_R   0.507983 0.258251 0.052142 0.012757
C36   C     C_R   0.212195 0.980919 0.443892 0.200146
C37   C     C_R   0.319260 0.361113 0.538461 0.202615
C38   C     C_R   0.711892 0.486076 0.442285 0.191716
C39   C     C_R   0.721641 0.347952 0.321573 0.557603
C40   C     C_R   0.292797 0.310897 0.672402 0.578631
C41   C     C_R   0.220999 0.845908 0.322205 0.555966
C42   C     C_R   0.793322 0.809586 0.672533 0.580339
C43   C     C_R   0.830980 0.851842 0.590654 -0.195367
C44   C     C_R   0.210639 0.964594 0.392572 -0.207929
C45   C     C_R   0.328117 0.346730 0.588936 -0.180799
C46   C     C_R   0.490261 0.258841 0.948710 0.012549
C47   C     C_R   0.708070 0.467699 0.391267 -0.208558
C48   C     C_R   0.724394 0.817966 0.597924 0.266521
C49   C     C_R   0.275230 0.815023 0.401661 0.252011
C50   C     C_R   0.220876 0.332113 0.600756 0.275956
C51   C     C_R   0.787695 0.340597 0.396859 0.247359
C52   C     C_R   0.717666 0.835240 0.547034 0.336748
C53   C     C_R   0.275984 0.829992 0.452551 0.310281
C54   C     C_R   0.211933 0.353860 0.550676 0.328514
C55   C     C_R   0.790489 0.357021 0.448004 0.303401
C56   C     C_R   0.767386 0.858052 0.518283 0.011358
C57   C     C_R   0.007975 0.758250 0.052145 0.012756
C58   C     C_R   0.245179 0.912397 0.473481 0.002385
C59   C     C_R   0.260822 0.365131 0.519329 0.008474
C60   C     C_R   0.752500 0.428178 0.470467 0.010660
C61   C     C_R   0.781768 0.828724 0.619935 -0.059974
C62   C     C_R   0.238893 0.879143 0.371854 -0.078964
C63   C     C_R   0.279674 0.333059 0.620393 -0.059567
C64   C     C_R   0.741929 0.389679 0.369403 -0.067546
C65   C     C_R   0.554535 0.159360 0.321708 0.575241
C66   C     C_R   0.446217 0.158468 0.678423 0.541154
C67   C     C_R   0.054537 0.659390 0.321640 0.573788
C68   C     C_R   0.990255 0.758840 0.948712 0.012565
C69   C     C_R   0.945859 0.658398 0.678209 0.536568
C70   C     C_R   0.732103 0.001503 0.322416 0.538036
C71   C     C_R   0.268254 0.002119 0.677144 0.536635
C72   C     C_R   0.232367 0.500095 0.321756 0.542577
C73   C     C_R   0.768632 0.503051 0.676711 0.533450
C74   C     C_R   0.516087 0.069463 0.102117 -0.133350
C75   C     C_R   0.485222 0.070759 0.897226 -0.132924
C76   C     C_R   0.016078 0.569462 0.102120 -0.133447
C77   C     C_R   0.985218 0.570758 0.897228 -0.132804
C78   C     C_R   0.507035 0.069719 0.051184 -0.000397
C79   C     C_R   0.503505 0.164315 0.025890 0.057599
C80   C     C_R   0.494146 0.070456 0.948168 -0.000252
C81   C     C_R   0.007026 0.569718 0.051187 -0.000349
C82   C     C_R   0.994140 0.570455 0.948170 -0.000239
C83   C     C_R   0.498352 0.976957 0.973657 -0.096720
C84   C     C_R   0.504175 0.976568 0.024952 -0.097983
C85   C     C_R   0.998345 0.476956 0.973660 -0.096671
C86   C     C_R   0.004168 0.476567 0.024955 -0.097910
C87   C     C_3   0.547125 0.945295 0.631341 0.011359
C88   C     C_3   0.560590 0.938500 0.686603 -0.348956
C89   C     C_3   0.393915 0.057063 0.361694 -0.024608
C90   C     C_R   0.496190 0.164658 0.974214 0.057303
C91   C     C_3   0.365168 0.021333 0.313275 -0.355656
C92   C     C_3   0.038702 0.438501 0.629423 0.013794
C93   C     C_3   0.057620 0.453398 0.683391 -0.350362
C94   C     C_3   0.891183 0.583850 0.357759 -0.026531
C95   C     C_3   0.860420 0.541750 0.311416 -0.359244
C96   C     C_3   0.897479 0.988515 0.526472 -0.004018
C97   C     C_3   0.931494 0.035831 0.483824 -0.365671
C98   C     C_3   0.126054 0.078771 0.447105 -0.014578
C99   C     C_3   0.089869 0.138902 0.484365 -0.371115
C100  C     C_3   0.385106 0.471574 0.502851 0.001435
C101  C     C_R   0.003496 0.664314 0.025893 0.057602
C102  C     C_3   0.423311 0.482396 0.457036 -0.370113
C103  C     C_3   0.618015 0.558202 0.450626 -0.010816
C104  C     C_3   0.580382 0.608456 0.490252 -0.371738
C105  C     C_3   0.648651 0.705131 0.615322 0.021328
C106  C     C_3   0.609647 0.669749 0.657872 -0.368949
C107  C     C_3   0.365429 0.742021 0.384588 0.021941
C108  C     C_3   0.394430 0.667716 0.348634 -0.355527
C109  C     C_3   0.146577 0.218578 0.620119 0.017349
C110  C     C_3   0.111197 0.180658 0.664404 -0.363760
C111  C     C_3   0.884095 0.282442 0.384015 0.018810
C112  C     C_R   0.279160 0.345989 0.821648 0.577811
C113  C     C_R   0.996183 0.664657 0.974217 0.057294
C114  C     C_3   0.919474 0.240075 0.340871 -0.369446
C115  C     C_3   0.645745 0.710311 0.881914 0.044821
C116  C     C_3   0.578753 0.706816 0.890577 -0.349650
C117  C     C_3   0.352976 0.708409 0.116041 0.045971
C118  C     C_3   0.419937 0.705195 0.107232 -0.348356
C119  C     C_3   0.145730 0.210348 0.881875 0.044686
C120  C     C_3   0.078739 0.206852 0.890538 -0.349724
C121  C     C_3   0.853039 0.208567 0.116103 0.046204
C122  C     C_3   0.920008 0.205385 0.107333 -0.348016
C123  C     C_R   0.503074 0.351705 0.026455 -0.140899
C124  C     C_R   0.493618 0.351975 0.975159 -0.140911
C125  C     C_R   0.003066 0.851704 0.026458 -0.140865
C126  C     C_R   0.993611 0.851974 0.975162 -0.140897
C127  C     C_R   0.734928 0.967760 0.128066 0.023928
C128  C     C_R   0.264917 0.968931 0.872045 0.024193
C129  C     C_R   0.234930 0.467744 0.128070 0.024687
C130  C     C_R   0.764926 0.468944 0.872050 0.023947
C131  C     C_R   0.789281 0.939078 0.107417 -0.150255
C132  C     C_R   0.220850 0.845661 0.178321 0.561709
C133  C     C_R   0.210347 0.941356 0.892833 -0.147877
C134  C     C_R   0.289280 0.439033 0.107426 -0.150306
C135  C     C_R   0.710365 0.441325 0.892838 -0.148039
C136  C     C_R   0.792561 0.921166 0.056589 -0.128688
C137  C     C_R   0.207114 0.923539 0.943635 -0.127501
C138  C     C_R   0.292560 0.421102 0.056599 -0.128670
C139  C     C_R   0.707139 0.423503 0.943641 -0.127526
C140  C     C_R   0.742003 0.935509 0.025925 0.064545
C141  C     C_R   0.257972 0.936860 0.974195 0.064618
C142  C     C_R   0.242006 0.435452 0.025931 0.064519
C143  C     C_R   0.779160 0.845989 0.821648 0.576884
C144  C     C_R   0.757993 0.436866 0.974202 0.064606
C145  C     C_R   0.688001 0.965216 0.046961 -0.069489
C146  C     C_R   0.312175 0.965687 0.953048 -0.068791
C147  C     C_R   0.188006 0.465182 0.046964 -0.069580
C148  C     C_R   0.812188 0.465733 0.953053 -0.068807
C149  C     C_R   0.553730 0.156988 0.177450 0.541653
C150  C     C_R   0.446265 0.157441 0.822568 0.539327
C151  C     C_R   0.053728 0.656988 0.177451 0.542401
C152  C     C_R   0.946265 0.657441 0.822568 0.540244
C153  C     C_R   0.684237 0.979057 0.097606 -0.132949
C154  C     C_R   0.474069 0.163319 0.872042 -0.007982
C155  C     C_R   0.315853 0.979433 0.902408 -0.132953
C156  C     C_R   0.184241 0.479046 0.097608 -0.132696
C157  C     C_R   0.815860 0.479486 0.902412 -0.132989
C158  C     C_R   0.701067 0.872013 0.944457 0.370022
C159  C     C_R   0.298644 0.871752 0.055206 0.369567
C160  C     C_R   0.201068 0.371987 0.944457 0.370026
C161  C     C_R   0.798679 0.371837 0.055228 0.369569
C162  C     C_R   0.708510 0.851873 0.893625 0.282937
C163  C     C_R   0.291180 0.850806 0.105949 0.282828
C164  C     C_R   0.208508 0.351877 0.893621 0.283097
C165  C     C_R   0.525856 0.162116 0.128013 -0.007910
C166  C     C_R   0.791206 0.350897 0.105971 0.282568
C167  C     C_R   0.803491 0.943675 0.897740 -0.189524
C168  C     C_R   0.197219 0.944348 0.102728 -0.190081
C169  C     C_R   0.303503 0.443632 0.897750 -0.189487
C170  C     C_R   0.697211 0.444326 0.102725 -0.190017
C171  C     C_R   0.796076 0.961685 0.947758 -0.195191
C172  C     C_R   0.204584 0.962910 0.052785 -0.195769
C173  C     C_R   0.296089 0.461621 0.947769 -0.195153
C174  C     C_R   0.704584 0.462888 0.052783 -0.195753
C175  C     C_R   0.746194 0.922714 0.971952 0.004807
C176  C     C_R   0.974066 0.663319 0.872044 -0.007862
C177  C     C_R   0.253944 0.923556 0.028161 0.005041
C178  C     C_R   0.246201 0.422659 0.971959 0.004803
C179  C     C_R   0.753964 0.423579 0.028169 0.005056
C180  C     C_R   0.761434 0.885270 0.870560 -0.014383
C181  C     C_R   0.238746 0.884859 0.129439 -0.013984
C182  C     C_R   0.261438 0.385260 0.870563 -0.014224
C183  C     C_R   0.738750 0.384886 0.129447 -0.014087
C184  C     C_R   0.531156 0.172504 0.371974 0.043205
C185  C     C_R   0.475421 0.165841 0.629606 0.022166
C186  C     C_R   0.032042 0.672715 0.372049 0.041978
C187  C     C_R   0.025849 0.662116 0.128016 -0.008017
C188  C     C_R   0.974494 0.665411 0.629124 0.020063
C189  C     C_R   0.559282 0.245853 0.402926 -0.183105
C190  C     C_R   0.481989 0.262110 0.606659 -0.190189
C191  C     C_R   0.062956 0.741702 0.403505 -0.184565
C192  C     C_R   0.983472 0.761826 0.606846 -0.188056
C193  C     C_R   0.546481 0.250766 0.453026 -0.144281
C194  C     C_R   0.493222 0.268245 0.555998 -0.109165
C195  C     C_R   0.049782 0.747572 0.453499 -0.139585
C196  C     C_R   0.995618 0.768460 0.556309 -0.110943
C197  C     C_R   0.730798 0.002624 0.179195 0.532226
C198  C     C_R   0.519685 0.256640 0.103222 -0.137541
C199  C     C_R   0.269213 0.003279 0.820890 0.540176
C200  C     C_R   0.230799 0.502620 0.179197 0.531980
C201  C     C_R   0.769215 0.503282 0.820892 0.540175
C202  C     C_R   0.505400 0.182254 0.473370 0.016067
C203  C     C_R   0.498164 0.178109 0.527533 0.007219
C204  C     C_R   0.005816 0.683715 0.473201 0.013941
C205  C     C_R   0.998013 0.678907 0.527222 0.004081
C206  C     C_R   0.474217 0.113049 0.442118 -0.095157
C207  C     C_R   0.497901 0.082597 0.551238 -0.105943
C208  C     C_R   0.972249 0.618880 0.441450 -0.095015
Cr1   Cr    Cr6+3 0.756570 0.170940 0.251190 1.047597
Cr2   Cr    Cr6+3 0.374010 0.036240 0.749520 1.025381
Cr3   Cr    Cr6+3 0.125990 0.536240 0.250480 1.032300
Cr4   Cr    Cr6+3 0.874010 0.536240 0.749520 1.024456
Cr5   Cr    Cr6+3 0.243430 0.170940 0.748810 1.015545
Cr6   Cr    Cr6+3 0.256570 0.670940 0.251190 1.034083
Cr7   Cr    Cr6+3 0.743430 0.670940 0.748810 1.018404
Cr8   Cr    Cr6+3 0.623740 0.299110 0.249580 1.000463
Cr9   Cr    Cr6+3 0.376260 0.299110 0.750420 1.003711
Cr10  Cr    Cr6+3 0.123740 0.799110 0.249580 1.004181
Cr11  Cr    Cr6+3 0.876260 0.799110 0.750420 1.000885
Cr12  Cr    Cr6+3 0.625990 0.036240 0.250480 1.036717
F1    F     F_    0.662281 0.838236 0.526232 -0.664230
F2    F     F_    0.303709 0.759923 0.482097 -0.664665
F3    F     F_    0.155546 0.365806 0.532828 -0.683181
F4    F     F_    0.826456 0.297214 0.476649 -0.675609
F5    F     F_    0.650916 0.839039 0.967249 -0.681941
F6    F     F_    0.348381 0.838550 0.032023 -0.681813
F7    F     F_    0.150913 0.339016 0.967243 -0.681910
F8    F     F_    0.848438 0.338687 0.032061 -0.681810
H1    H     H_    0.482248 0.997560 0.877890 0.137550
H2    H     H_    0.351387 0.981114 0.975673 0.176091
H3    H     H_    0.112744 0.212429 0.493247 0.237356
H4    H     H_    0.045383 0.156543 0.468276 0.094543
H5    H     H_    0.084372 0.093331 0.518738 0.124183
H6    H     H_    0.411673 0.495990 0.535912 0.132379
H7    H     H_    0.346231 0.524246 0.498330 0.176933
H8    H     H_    0.398418 0.453357 0.424038 0.165521
H9    H     H_    0.434625 0.564631 0.451156 0.096885
H10   H     H_    0.465101 0.437678 0.461458 0.144000
H11   H     H_    0.601589 0.477642 0.445473 0.114210
H12   H     H_    0.611542 0.602075 0.415737 0.139156
H13   H     H_    0.149093 0.481365 0.024252 0.175946
H14   H     H_    0.593884 0.690158 0.495013 0.222787
H15   H     H_    0.532721 0.605997 0.479074 0.088353
H16   H     H_    0.586009 0.567011 0.525880 0.129939
H17   H     H_    0.683033 0.645236 0.608885 0.149101
H18   H     H_    0.619848 0.711373 0.581891 0.177882
H19   H     H_    0.569077 0.717807 0.660220 0.119745
H20   H     H_    0.595615 0.588549 0.651722 0.089479
H21   H     H_    0.634413 0.675483 0.693560 0.197474
H22   H     H_    0.382307 0.724549 0.422422 0.186201
H23   H     H_    0.379556 0.821473 0.374488 0.116982
H24   H     H_    0.851397 0.481192 0.975677 0.176110
H25   H     H_    0.380127 0.685760 0.310149 0.166378
H26   H     H_    0.443719 0.674800 0.351500 0.085944
H27   H     H_    0.381336 0.587326 0.357403 0.163042
H28   H     H_    0.180977 0.159486 0.611769 0.145086
H29   H     H_    0.115633 0.224652 0.587902 0.166399
H30   H     H_    0.071422 0.228956 0.670479 0.115416
H31   H     H_    0.096005 0.100265 0.657748 0.085535
H32   H     H_    0.139076 0.183177 0.698542 0.201794
H33   H     H_    0.898180 0.239923 0.417729 0.193578
H34   H     H_    0.895750 0.365449 0.388640 0.155827
H35   H     H_    0.642293 0.004978 0.112579 0.134061
H36   H     H_    0.906459 0.279958 0.306129 0.162356
H37   H     H_    0.967906 0.252256 0.347826 0.109308
H38   H     H_    0.910676 0.156253 0.336523 0.155729
H39   H     H_    0.670050 0.682894 0.915613 0.152910
H40   H     H_    0.655199 0.654282 0.852201 0.164887
H41   H     H_    0.554346 0.725583 0.855778 0.140055
H42   H     H_    0.565485 0.628385 0.902631 0.081242
H43   H     H_    0.566019 0.762963 0.919539 0.212388
H44   H     H_    0.328394 0.682154 0.082117 0.153866
H45   H     H_    0.343295 0.651283 0.145085 0.164816
H46   H     H_    0.358026 0.004517 0.887380 0.135050
H47   H     H_    0.444508 0.722057 0.142277 0.140691
H48   H     H_    0.432704 0.627383 0.093972 0.080511
H49   H     H_    0.433007 0.762827 0.079141 0.213495
H50   H     H_    0.170034 0.182888 0.915566 0.152912
H51   H     H_    0.155179 0.154357 0.852144 0.164709
H52   H     H_    0.054331 0.225664 0.855746 0.139930
H53   H     H_    0.065466 0.128408 0.902571 0.081228
H54   H     H_    0.066009 0.262966 0.919517 0.212414
H55   H     H_    0.828493 0.182283 0.082167 0.153526
H56   H     H_    0.843339 0.151455 0.145150 0.165412
H57   H     H_    0.142299 0.504986 0.112576 0.134149
H58   H     H_    0.944549 0.222298 0.142388 0.140973
H59   H     H_    0.932803 0.127570 0.094097 0.080693
H60   H     H_    0.933085 0.263000 0.079236 0.213229
H61   H     H_    0.858026 0.504602 0.887383 0.135022
H62   H     H_    0.593990 0.295871 0.388946 0.139074
H63   H     H_    0.474998 0.332686 0.627203 0.122645
H64   H     H_    0.099708 0.787651 0.389899 0.138394
H65   H     H_    0.520277 0.996081 0.120861 0.137557
H66   H     H_    0.978257 0.832248 0.627891 0.117689
H67   H     H_    0.504862 0.012457 0.530276 0.134689
H68   H     H_    0.441751 0.060734 0.457662 0.100639
H69   H     H_    0.999189 0.512886 0.528557 0.137314
H70   H     H_    0.937580 0.570235 0.456478 0.101604
H71   H     H_    0.571268 0.304117 0.476388 0.105494
H72   H     H_    0.495301 0.343245 0.538747 0.128029
H73   H     H_    0.076338 0.797710 0.477215 0.110996
H74   H     H_    0.000591 0.843469 0.539525 0.125779
H75   H     H_    0.717723 0.802138 0.353241 0.106005
H76   H     H_    0.982244 0.497559 0.877892 0.137428
H77   H     H_    0.356094 0.957110 0.614498 0.172720
H78   H     H_    0.288859 0.324606 0.350786 0.094236
H79   H     H_    0.857708 0.496033 0.612601 0.174790
H80   H     H_    0.874845 0.857749 0.607344 0.144678
H81   H     H_    0.185482 0.015692 0.368750 0.137226
H82   H     H_    0.373031 0.344759 0.603568 0.149586
H83   H     H_    0.676413 0.510271 0.368906 0.138783
H84   H     H_    0.496228 0.904159 0.953988 0.127536
H85   H     H_    0.507362 0.903496 0.044039 0.127327
H86   H     H_    0.996222 0.404158 0.953990 0.127528
H87   H     H_    0.020269 0.496080 0.120865 0.137437
H88   H     H_    0.007356 0.403495 0.044041 0.127316
H89   H     H_    0.733601 0.740122 0.438912 0.165615
H90   H     H_    0.345953 0.929220 0.526405 0.136779
H91   H     H_    0.299039 0.264122 0.437044 0.147779
H92   H     H_    0.850314 0.472762 0.523988 0.138829
H93   H     H_    0.777538 0.049751 0.485418 0.139970
H94   H     H_    0.154106 0.924547 0.538969 0.116161
H95   H     H_    0.202370 0.531295 0.487238 0.160203
H96   H     H_    0.661819 0.409316 0.536171 0.118163
H97   H     H_    0.763703 0.109924 0.401281 0.187732
H98   H     H_    0.844152 0.971373 0.881005 0.155388
H99   H     H_    0.163960 0.957444 0.628368 0.112235
H100  H     H_    0.191186 0.589405 0.401870 0.130185
H101  H     H_    0.668643 0.437565 0.626299 0.110862
H102  H     H_    0.470237 0.329342 0.878370 0.121685
H103  H     H_    0.526996 0.328422 0.123024 0.121364
H104  H     H_    0.970234 0.829342 0.878372 0.121676
H105  H     H_    0.026991 0.828421 0.123026 0.121595
H106  H     H_    0.489075 0.424944 0.956172 0.105119
H107  H     H_    0.506428 0.424497 0.046037 0.104757
H108  H     H_    0.989069 0.924943 0.956174 0.105108
H109  H     H_    0.156967 0.972627 0.119766 0.155559
H110  H     H_    0.006421 0.924496 0.046039 0.104842
H111  H     H_    0.828983 0.932087 0.130359 0.111519
H112  H     H_    0.170460 0.935005 0.870009 0.112267
H113  H     H_    0.328980 0.432036 0.130370 0.110677
H114  H     H_    0.670479 0.434940 0.870015 0.112187
H115  H     H_    0.834759 0.897775 0.041125 0.115913
H116  H     H_    0.164743 0.900854 0.959154 0.115957
H117  H     H_    0.334757 0.397693 0.041138 0.115874
H118  H     H_    0.664773 0.400783 0.959160 0.115943
H119  H     H_    0.830191 0.004560 0.967833 0.135214
H120  H     H_    0.344169 0.471319 0.881019 0.155416
H121  H     H_    0.170829 0.006600 0.033101 0.135656
H122  H     H_    0.330208 0.504476 0.967849 0.135240
H123  H     H_    0.670818 0.506538 0.033091 0.135617
H124  H     H_    0.582348 0.993701 0.613764 0.151221
H125  H     H_    0.550716 0.867515 0.614653 0.178978
H126  H     H_    0.527780 0.886979 0.704661 0.156932
H127  H     H_    0.606085 0.907400 0.692811 0.159038
H128  H     H_    0.558208 0.016274 0.703657 0.153755
H129  H     H_    0.382217 0.139934 0.366839 0.120892
H130  H     H_    0.374682 0.011551 0.392466 0.122651
H131  H     H_    0.656942 0.472563 0.119752 0.155515
H132  H     H_    0.375083 0.938876 0.306419 0.164170
H133  H     H_    0.316086 0.031377 0.314955 0.096987
H134  H     H_    0.382606 0.067676 0.282110 0.162773
H135  H     H_    0.073630 0.471353 0.604819 0.177467
H136  H     H_    0.036755 0.355127 0.620916 0.164890
H137  H     H_    0.024671 0.416444 0.708115 0.163631
H138  H     H_    0.101920 0.418209 0.690175 0.165130
H139  H     H_    0.060756 0.536768 0.692315 0.146449
H140  H     H_    0.887056 0.669509 0.356953 0.134186
H141  H     H_    0.867450 0.553560 0.390600 0.121690
H142  H     H_    0.649086 0.981393 0.024252 0.175931
H143  H     H_    0.862154 0.456418 0.310957 0.168882
H144  H     H_    0.812981 0.565983 0.310678 0.097598
H145  H     H_    0.882751 0.571818 0.277928 0.166498
H146  H     H_    0.928944 0.976536 0.557972 0.119790
H147  H     H_    0.862900 0.044966 0.538040 0.148209
H148  H     H_    0.901484 0.044842 0.451143 0.175705
H149  H     H_    0.948500 0.112914 0.495027 0.112861
H150  H     H_    0.969598 0.985946 0.473670 0.140797
H151  H     H_    0.102506 0.004141 0.440004 0.118085
H152  H     H_    0.127618 0.124583 0.412461 0.143870
O1    O     O_R   0.769900 0.064540 0.196060 -0.538064
O2    O     O_R   0.433710 0.069580 0.694600 -0.462211
O3    O     O_R   0.066290 0.569580 0.305400 -0.472029
O4    O     O_R   0.933710 0.569580 0.694600 -0.465279
O5    O     O_R   0.680760 0.993330 0.302620 -0.498123
O6    O     O_R   0.319240 0.993330 0.697380 -0.498722
O7    O     O_R   0.180760 0.493330 0.302620 -0.504488
O8    O     O_R   0.819240 0.493330 0.697380 -0.495912
O9    O     O_3   0.668770 0.168760 0.250420 -0.256570
O10   O     O_3   0.331230 0.168760 0.749580 -0.271014
O11   O     O_3   0.168770 0.668760 0.250420 -0.254907
O12   O     O_R   0.230100 0.064540 0.803940 -0.541322
O13   O     O_3   0.831230 0.668760 0.749580 -0.272649
O14   O     O_R   0.750800 0.274080 0.199250 -0.465504
O15   O     O_R   0.249200 0.274080 0.800750 -0.461451
O16   O     O_R   0.250800 0.774080 0.199250 -0.466531
O17   O     O_R   0.749200 0.774080 0.800750 -0.461332
O18   O     O_R   0.669990 0.371670 0.194150 -0.532672
O19   O     O_R   0.330010 0.371670 0.805850 -0.525673
O20   O     O_R   0.169990 0.871670 0.194150 -0.531979
O21   O     O_R   0.830010 0.871670 0.805850 -0.525881
O22   O     O_R   0.574600 0.238480 0.197800 -0.502355
O23   O     O_R   0.269900 0.564540 0.196060 -0.541615
O24   O     O_R   0.425400 0.238480 0.802200 -0.502326
O25   O     O_R   0.074600 0.738480 0.197800 -0.501754
O26   O     O_R   0.925400 0.738480 0.802200 -0.501818
O27   O     O_R   0.566130 0.068680 0.194240 -0.524470
O28   O     O_R   0.433870 0.068680 0.805760 -0.528267
O29   O     O_R   0.066130 0.568680 0.194240 -0.524154
O30   O     O_R   0.933870 0.568680 0.805760 -0.528614
O31   O     O_R   0.680610 0.992490 0.199570 -0.505479
O32   O     O_R   0.319390 0.992490 0.800430 -0.497890
O33   O     O_R   0.180610 0.492490 0.199570 -0.504542
O34   O     O_R   0.730100 0.564540 0.803940 -0.540369
O35   O     O_R   0.819390 0.492490 0.800430 -0.497730
O36   O     O_R   0.770060 0.065440 0.307230 -0.499051
O37   O     O_R   0.229940 0.065440 0.692770 -0.545995
O38   O     O_R   0.270060 0.565440 0.307230 -0.490647
O39   O     O_R   0.729940 0.565440 0.692770 -0.541769
O40   O     O_R   0.750960 0.274920 0.302300 -0.442895
O41   O     O_R   0.249040 0.274920 0.697700 -0.454346
O42   O     O_R   0.250960 0.774920 0.302300 -0.450757
O43   O     O_R   0.749040 0.774920 0.697700 -0.451715
O44   O     O_R   0.670160 0.372580 0.305320 -0.537416
O45   O     O_R   0.574760 0.239320 0.300850 -0.521070
O46   O     O_R   0.329840 0.372580 0.694680 -0.512102
O47   O     O_R   0.170160 0.872580 0.305320 -0.533049
O48   O     O_R   0.829840 0.872580 0.694680 -0.515914
O49   O     O_3   0.487881 0.979845 0.623930 -0.560484
O50   O     O_3   0.456239 0.040896 0.359623 -0.551048
O51   O     O_3   0.980805 0.478500 0.621543 -0.559778
O52   O     O_3   0.951447 0.551793 0.358638 -0.561326
O53   O     O_3   0.872614 0.893277 0.510887 -0.550078
O54   O     O_3   0.184503 0.064608 0.466095 -0.553216
O55   O     O_3   0.367862 0.367423 0.507624 -0.564589
O56   O     O_R   0.425240 0.239320 0.699150 -0.533671
O57   O     O_3   0.678662 0.562067 0.465536 -0.560034
O58   O     O_3   0.674599 0.801795 0.626938 -0.542990
O59   O     O_3   0.302828 0.729034 0.382053 -0.504215
O60   O     O_3   0.172200 0.316059 0.630973 -0.540753
O61   O     O_3   0.822604 0.265694 0.374620 -0.537788
O62   O     O_3   0.662535 0.809519 0.865136 -0.541599
O63   O     O_3   0.336738 0.806983 0.134015 -0.542194
O64   O     O_3   0.162524 0.309575 0.865126 -0.541333
O65   O     O_3   0.836773 0.307147 0.134051 -0.542118
O66   O     O_R   0.074760 0.739320 0.300850 -0.518168
O67   O     O_R   0.925240 0.739320 0.699150 -0.533227
O68   O     O_R   0.566290 0.069580 0.305400 -0.463864

loop_
_geom_bond_atom_site_label_1
_geom_bond_atom_site_label_2
_ccdc_geom_bond_type
C172  C177  A    
Cr10  O47   S    
C21   C26   A    
C34   C56   A    
C108  H25   S    
C101  C113  A    
C100  H6    S    
C208  H70   S    
C136  C140  A    
C136  H115  S    
C41   O42   A    
C185  C190  A    
C133  C137  A    
C40   O41   A    
C93   H139  S    
C44   H81   S    
Cr8   O18   S    
C167  H98   S    
C119  H51   S    
C99   H5    S    
C120  H52   S    
C29   C33   A    
C169  H120  S    
C75   H1    S    
C114  H36   S    
C111  H33   S    
C79   C90   A    
C5    O49   S    
C204  C208  A    
C25   C60   S    
C132  O16   A    
C206  H68   S    
C81   C86   A    
C167  C180  A    
C46   C124  A    
C134  H113  S    
C80   C83   A    
C9    C31   A    
C137  H116  S    
C25   C29   A    
C148  H24   S    
C202  C203  S    
C27   C31   A    
C70   O36   A    
Cr11  O21   S    
C117  H45   S    
Cr10  O66   S    
C47   C64   A    
C72   O38   A    
C167  C171  A    
Cr9   O10   S    
C17   C21   A    
C138  H117  S    
C94   O52   S    
C135  C139  A    
C110  H32   S    
Cr3   O29   S    
C132  C181  S    
Cr9   O24   S    
C201  O35   A    
C96   H147  S    
C190  H63   S    
Cr7   O34   S    
C16   C20   A    
C40   O46   A    
Cr12  O5    S    
C32   H100  S    
Cr10  O11   S    
C160  C178  A    
C112  O19   A    
C120  H53   S    
Cr7   O13   S    
C83   H84   S    
C22   C27   A    
C108  H27   S    
C141  C177  S    
C36   C44   A    
C37   C45   A    
C116  H41   S    
C24   C176  A    
C192  C196  A    
C115  H40   S    
C43   C61   A    
C163  O63   S    
C170  C174  A    
C39   O44   A    
C133  H112  S    
Cr8   O22   S    
C49   C62   A    
C49   O59   S    
C66   O2    A    
Cr10  O20   S    
C51   C64   A    
Cr12  O68   S    
C95   H143  S    
C140  C145  A    
C22   C58   S    
C129  C156  A    
C99   H3    S    
C53   C58   A    
C96   O53   S    
C82   C85   A    
C6    C186  A    
C2    H102  S    
C160  F7    S    
C128  C199  S    
C4    O50   S    
C165  C198  A    
C54   F3    S    
C197  O31   A    
C76   H87   S    
C203  C207  A    
C77   C82   A    
C49   C53   A    
Cr8   O9    S    
C51   C55   A    
C87   O49   S    
C127  C131  A    
C169  C182  A    
C111  O61   S    
C48   C52   A    
C28   H95   S    
C98   C99   S    
C117  O63   S    
C207  H67   S    
C143  O17   A    
C66   O56   A    
C74   C165  A    
Cr7   O43   S    
C65   O45   A    
C55   F4    S    
Cr8   O44   S    
C13   C187  A    
C67   O3    A    
C163  C181  A    
Cr5   O15   S    
C92   H135  S    
C80   C90   A    
Cr6   O16   S    
C118  H48   S    
C1    C183  S    
C123  C124  A    
C81   C101  A    
C85   C86   A    
C23   C59   S    
C88   H128  S    
C42   O48   A    
C130  C157  A    
C45   H82   S    
C110  H30   S    
C114  H38   S    
C57   C125  A    
Cr1   O14   S    
C13   C57   A    
C147  H13   S    
C115  C116  S    
C199  O12   A    
C72   O7    A    
C198  H103  S    
C3    H69   S    
Cr9   O19   S    
C26   H93   S    
C103  H12   S    
Cr4   O4    S    
C107  C108  S    
C106  H19   S    
C89   C91   S    
C116  H43   S    
C6    C208  A    
C170  H131  S    
C123  H107  S    
C2    C154  A    
Cr7   O17   S    
C50   C63   A    
C155  H46   S    
C37   O55   S    
C156  H57   S    
C54   C59   A    
C135  H114  S    
C200  O33   A    
C3    C205  A    
C11   C33   A    
C149  C165  S    
C131  C136  A    
C24   C68   A    
Cr8   O45   S    
C124  H106  S    
C100  O55   S    
C1    O14   A    
C132  O20   A    
Cr11  O26   S    
C122  H59   S    
C89   H130  S    
C83   C84   A    
C42   C61   S    
C91   H132  S    
C8    C12   A    
C149  O22   A    
C69   O67   A    
C197  O1    A    
C23   C28   A    
C105  H17   S    
C37   C59   A    
C38   C60   A    
C199  O32   A    
C96   H146  S    
C121  H56   S    
C26   C30   A    
C77   C176  A    
C66   C185  S    
C14   H77   S    
C15   H78   S    
C119  O64   S    
C102  H9    S    
C192  H66   S    
C107  H22   S    
C108  H26   S    
C18   C22   A    
C142  C147  A    
Cr2   O28   S    
C34   C43   A    
C82   C113  A    
C19   H91   S    
C7    O51   S    
C104  H15   S    
C57   C101  A    
C109  H28   S    
C8    C70   S    
Cr12  O9    S    
C93   H138  S    
C188  C192  A    
Cr1   O1    S    
Cr6   O23   S    
C35   C123  A    
C117  C118  S    
C112  O15   A    
C142  C178  S    
C173  C178  A    
C35   C79   A    
C148  C157  A    
C92   O51   S    
C98   H151  S    
C153  H35   S    
C13   H105  S    
C189  C193  A    
C158  C175  A    
C204  C205  S    
C162  O62   S    
C169  C173  A    
C24   H104  S    
C121  H55   S    
Cr11  O13   S    
Cr4   O30   S    
C70   O5    A    
C107  O59   S    
C65   C184  S    
C10   C72   S    
C20   H92   S    
C125  H110  S    
C97   H150  S    
Cr2   O6    S    
Cr3   O11   S    
C130  C135  A    
C65   O68   A    
C5    C185  A    
Cr2   O32   S    
C87   H124  S    
Cr1   O36   S    
C151  C187  S    
C39   C64   S    
C50   C54   A    
C40   C63   S    
Cr10  O25   S    
Cr6   O38   S    
C160  C164  A    
C109  O60   S    
C33   H101  S    
Cr4   O35   S    
C152  O30   A    
C3    C7    A    
C150  O28   A    
C20   C25   A    
C42   O43   A    
C47   H83   S    
C159  F6    S    
C186  C191  A    
C143  O21   A    
C103  O57   S    
C201  O34   A    
C50   O60   S    
C146  C155  A    
C164  O64   S    
C12   C17   A    
C76   C187  A    
Cr5   O10   S    
C68   C113  A    
C161  F8    S    
C17   H89   S    
C97   H148  S    
C120  H54   S    
C150  C154  S    
C52   F1    S    
C27   H94   S    
C55   C60   A    
C48   O58   S    
C6    O52   S    
C41   C62   S    
C116  H42   S    
C127  C197  S    
C115  H39   S    
C77   H76   S    
C191  H64   S    
Cr1   O40   S    
C138  C142  A    
Cr2   O2    S    
C34   O53   S    
C195  C204  A    
C53   F2    S    
C193  C202  A    
C87   H125  S    
C9    C14   A    
C111  H34   S    
Cr1   O9    S    
C200  O23   A    
C11   C16   A    
C16   H79   S    
C28   C32   A    
Cr5   O41   S    
C95   H145  S    
C4    C206  A    
C147  C156  A    
C158  F5    S    
C84   H85   S    
C38   O57   S    
C141  C146  A    
C193  H71   S    
C173  H122  S    
C194  H72   S    
C149  O27   A    
C11   C73   S    
C125  C126  A    
C43   H80   S    
C172  H121  S    
C102  H8    S    
C85   H86   S    
C137  C141  A    
C196  H74   S    
C1    O18   A    
C92   H136  S    
C74   H65   S    
C166  C183  A    
C9    C71   S    
C69   O4    A    
C21   C56   S    
C119  C120  S    
C86   H88   S    
C46   C90   A    
C105  O58   S    
C105  C106  S    
C107  H23   S    
C8    C30   A    
C110  H31   S    
C109  C110  S    
C89   O50   S    
C140  C175  S    
C104  H14   S    
C92   C93   S    
C94   H141  S    
C111  C114  S    
C94   C95   S    
C88   H126  S    
C164  C182  A    
C174  H123  S    
C129  C134  A    
C168  C172  A    
C36   O54   S    
C87   C88   S    
C103  H11   S    
C74   C78   A    
Cr9   O56   S    
C126  H108  S    
C103  C104  S    
C115  O62   S    
C18   H90   S    
C100  H7    S    
C106  H20   S    
C170  C183  A    
C29   H96   S    
C14   C18   A    
C19   C23   A    
C91   H134  S    
C95   H144  S    
C144  C148  A    
C127  C153  A    
C119  H50   S    
C99   H4    S    
C151  O25   A    
C2    C46   A    
C139  H118  S    
Cr11  O48   S    
C106  H21   S    
C36   C58   A    
C10   C15   A    
C5    C207  A    
C168  C181  A    
C30   H97   S    
C196  C205  A    
C122  H60   S    
C71   O37   A    
C128  C155  A    
C89   H129  S    
C15   C19   A    
Cr11  O67   S    
Cr4   O8    S    
Cr2   O10   S    
Cr3   O7    S    
C130  C201  S    
C75   C80   A    
C161  C166  A    
Cr3   O33   S    
C67   C186  S    
C166  O65   S    
C145  C153  A    
Cr12  O27   S    
C51   O61   S    
C73   O39   A    
C71   O6    A    
C131  H111  S    
C152  O26   A    
C159  C177  A    
C94   H140  S    
C118  H47   S    
C150  O24   A    
Cr4   O13   S    
C191  C195  A    
C151  O29   A    
C102  H10   S    
C88   H127  S    
C157  H61   S    
C7    C188  A    
C114  H37   S    
C158  C162  A    
C78   C79   A    
C112  C182  S    
C118  H49   S    
C44   C62   A    
C39   O40   A    
C104  H16   S    
C171  C175  A    
C45   C63   A    
C93   H137  S    
C10   C32   A    
C139  C144  A    
C91   H133  S    
C144  C179  S    
C96   C97   S    
C100  C102  S    
C121  C122  S    
C67   O66   A    
C143  C180  S    
C4    C184  A    
C98   H152  S    
C41   O47   A    
C69   C188  S    
C38   C47   A    
C145  H142  S    
Cr12  O31   S    
C121  O65   S    
C159  C163  A    
C161  C179  A    
Cr5   O12   S    
C68   C126  A    
Cr6   O11   S    
C117  H44   S    
C146  H2    S    
C97   H149  S    
C162  C180  A    
C171  H119  S    
C76   C81   A    
C134  C138  A    
Cr7   O39   S    
C12   H75   S    
C98   O54   S    
Cr5   O37   S    
Cr6   O42   S    
C31   H99   S    
C122  H58   S    
C73   O8    A    
C128  C133  A    
C75   C154  A    
C48   C61   A    
C195  H73   S    
C194  C203  A    
C174  C179  A    
Cr9   O46   S    
C109  H29   S    
C105  H18   S    
C129  C200  S    
C190  C194  A    
C189  H62   S    
C152  C176  S    
C78   C84   A    
C202  C206  A    
Cr3   O3    S    
C184  C189  A    
C168  H109  S    
C52   C56   A    
C35   C198  A    
