data_mof_unit_4398.cif
_audit_creation_date              2012-12-11T17:07:57-0500
_audit_creation_method            fapswitch 2.2
_symmetry_space_group_name_H-M    P1
_symmetry_Int_Tables_number       1
_space_group_crystal_system       triclinic
_cell_length_a                    17.417865
_cell_length_b                    17.417697
_cell_length_c                    17.42306
_cell_angle_alpha                 90.102383
_cell_angle_beta                  90.102691
_cell_angle_gamma                 90.061061
_cell_volume                      5285.77222562

loop_
_atom_site_label
_atom_site_type_symbol
_atom_type_description
_atom_site_fract_x
_atom_site_fract_y
_atom_site_fract_z
_atom_type_partial_charge
C1    C     C_R   0.396399 0.302518 0.900556 -0.137465
C2    C     C_R   0.196757 0.896576 0.398671 -0.139685
C3    C     C_R   0.794405 0.848367 0.192275 -0.189293
C4    C     C_R   0.151669 0.205580 0.807719 -0.189260
C5    C     C_R   0.308415 0.773578 0.659482 -0.190581
C6    C     C_R   0.853435 0.775603 0.794681 -0.198555
C7    C     C_R   0.694806 0.241818 0.648199 -0.195738
C8    C     C_R   0.650358 0.287353 0.697167 -0.179562
C9    C     C_R   0.807534 0.730507 0.842471 -0.185652
C10   C     C_R   0.353724 0.729300 0.708486 -0.192970
C11   C     C_R   0.196796 0.253124 0.854544 -0.192549
C12   C     C_R   0.746852 0.803237 0.145457 -0.192452
C13   C     C_R   0.071106 0.161706 0.353302 -0.176789
C14   C     C_R   0.712516 0.349628 0.302918 -0.179264
C15   C     C_R   0.269494 0.192472 0.157535 -0.185655
C16   C     C_R   0.270699 0.646275 0.291515 -0.192991
C17   C     C_3   0.910873 0.234181 0.782823 -0.279800
C18   C     C_3   0.850733 0.172652 0.802995 -0.971668
C19   C     C_3   0.688366 0.991757 0.764528 -0.337622
C20   C     C_3   0.748726 0.006563 0.827512 -0.978117
C21   C     C_3   0.062983 0.679118 0.731834 -0.307101
C22   C     C_3   0.080532 0.752524 0.778755 -0.970740
C23   C     C_3   0.348562 0.041728 0.706499 -0.318951
C24   C     C_R   0.802408 0.104506 0.402162 -0.145047
C25   C     C_3   0.315143 0.001200 0.777767 -0.966309
C26   C     C_3   0.958472 0.651550 0.293100 -0.319364
C27   C     C_3   0.998792 0.685141 0.221805 -0.965957
C28   C     C_3   0.765820 0.089100 0.217149 -0.279785
C29   C     C_3   0.827357 0.149236 0.196989 -0.971650
C30   C     C_3   0.008271 0.311643 0.235511 -0.337619
C31   C     C_3   0.993450 0.251277 0.172535 -0.978164
C32   C     C_3   0.320890 0.937022 0.268206 -0.307057
C33   C     C_3   0.247479 0.919488 0.221286 -0.970741
C34   C     C_3   0.495665 0.793516 0.283702 -0.322844
C35   C     C_R   0.895486 0.197592 0.597824 -0.145059
C36   C     C_3   0.498999 0.725415 0.339878 -0.976510
C37   C     C_3   0.202240 0.430776 0.252035 -0.309754
C38   C     C_3   0.273333 0.397539 0.293499 -0.950551
C39   C     C_3   0.542878 0.150425 0.207298 -0.333487
C40   C     C_3   0.500841 0.184901 0.277347 -0.963134
C41   C     C_3   0.735922 0.588514 0.288604 -0.304648
C42   C     C_3   0.673544 0.648436 0.305818 -0.961857
C43   C     C_3   0.411528 0.264246 0.711399 -0.304387
C44   C     C_3   0.351635 0.326677 0.694291 -0.961878
C45   C     C_3   0.206489 0.504344 0.716283 -0.322802
C46   C     C_R   0.164525 0.071517 0.645102 -0.172107
C47   C     C_3   0.274560 0.501039 0.660069 -0.976515
C48   C     C_3   0.569248 0.797770 0.747977 -0.309695
C49   C     C_3   0.602497 0.726688 0.706504 -0.950549
C50   C     C_3   0.849555 0.457132 0.792654 -0.333502
C51   C     C_3   0.815067 0.499159 0.722606 -0.963153
C52   C     C_3   0.949854 0.353314 0.704497 -0.400758
C53   C     C_3   0.020426 0.365952 0.754968 -1.016669
C54   C     C_3   0.657330 0.901450 0.649673 -0.373115
C55   C     C_3   0.589369 0.952067 0.625487 -0.987635
C56   C     C_3   0.107539 0.597867 0.613446 -0.395431
C57   C     C_R   0.103419 0.803247 0.601344 -0.139711
C58   C     C_3   0.032028 0.552739 0.617406 -0.973522
C59   C     C_3   0.327217 0.153362 0.610632 -0.392955
C60   C     C_3   0.396903 0.128388 0.562906 -0.941667
C61   C     C_3   0.847043 0.672612 0.389251 -0.392866
C62   C     C_3   0.872113 0.602795 0.436739 -0.941876
C63   C     C_3   0.646683 0.050133 0.295472 -0.400725
C64   C     C_3   0.634029 0.979563 0.245003 -1.016673
C65   C     C_3   0.098585 0.342679 0.350357 -0.373081
C66   C     C_3   0.047959 0.410631 0.374551 -0.987664
C67   C     C_3   0.402143 0.892431 0.386579 -0.395403
C68   C     C_R   0.838300 0.928897 0.646702 -0.176771
C69   C     C_3   0.447270 0.967944 0.382638 -0.973571
C70   C     C_3   0.416241 0.844194 0.166507 -0.375011
C71   C     C_3   0.476871 0.905872 0.150516 -1.004684
C72   C     C_3   0.103962 0.412631 0.138148 -0.396600
C73   C     C_3   0.073410 0.493345 0.154608 -0.953565
C74   C     C_3   0.656423 0.172561 0.113066 -0.381243
C75   C     C_3   0.635075 0.102495 0.063728 -0.949368
C76   C     C_3   0.853189 0.548399 0.207419 -0.374818
C77   C     C_3   0.869568 0.476526 0.255926 -0.977870
C78   C     C_3   0.451630 0.146876 0.792418 -0.374446
C79   C     C_3   0.882365 0.312347 0.747239 0.300101
C80   C     C_3   0.523482 0.130493 0.743874 -0.977629
C81   C     C_3   0.155815 0.583735 0.833500 -0.375028
C82   C     C_3   0.094141 0.523097 0.849476 -1.004734
C83   C     C_3   0.587383 0.896038 0.861883 -0.396441
C84   C     C_3   0.506630 0.926507 0.845462 -0.953743
C85   C     C_3   0.827443 0.343595 0.886901 -0.381252
C86   C     C_3   0.897520 0.364949 0.936220 -0.949375
C87   C     C_3   0.677781 0.905825 0.738050 0.286098
C88   C     C_3   0.131957 0.636972 0.691531 0.290423
C89   C     C_R   0.665683 0.427091 0.855560 -0.175041
C90   C     C_3   0.332959 0.130691 0.697619 0.304095
C91   C     C_3   0.869509 0.667047 0.302204 0.304140
C92   C     C_3   0.687657 0.117615 0.252727 0.300075
C93   C     C_3   0.094202 0.322230 0.261980 0.286138
C94   C     C_3   0.363034 0.868036 0.308490 0.290373
C95   C     C_3   0.413683 0.816115 0.252759 0.283092
C96   C     C_3   0.146889 0.373945 0.208250 0.290262
C97   C     C_3   0.632149 0.166796 0.199807 0.300687
C98   C     C_3   0.813329 0.616525 0.250959 0.286000
C99   C     C_3   0.383499 0.186795 0.748934 0.285702
C100  C     C_R   0.602390 0.696142 0.896487 -0.136165
C101  C     C_3   0.183887 0.586316 0.747247 0.283115
C102  C     C_3   0.626069 0.853126 0.791773 0.290226
C103  C     C_3   0.833189 0.367859 0.800156 0.300697
C104  C     C_R   0.416161 0.673228 0.859321 -0.121117
C105  C     C_R   0.304683 0.390583 0.895431 -0.188129
C106  C     C_R   0.583736 0.328520 0.857273 -0.148673
C107  C     C_R   0.695231 0.609124 0.895910 -0.154001
C108  C     C_R   0.390876 0.304769 0.104091 -0.154025
C109  C     C_R   0.326766 0.583847 0.140673 -0.121151
C110  C     C_R   0.609414 0.695322 0.104566 -0.188028
C111  C     C_R   0.338441 0.572053 0.852978 -0.176135
C112  C     C_R   0.671458 0.416273 0.142748 -0.148648
C113  C     C_R   0.890924 0.195698 0.396653 -0.177979
C114  C     C_R   0.829759 0.916904 0.356231 -0.146261
C115  C     C_R   0.109007 0.804312 0.397428 -0.151589
C116  C     C_R   0.170193 0.081861 0.356928 -0.130534
C117  C     C_R   0.918138 0.829805 0.643072 -0.130510
C118  C     C_R   0.804301 0.109068 0.603343 -0.178012
C119  C     C_R   0.083109 0.170253 0.643760 -0.146383
C120  C     C_R   0.195684 0.890997 0.602585 -0.151706
C121  C     C_R   0.322911 0.314391 0.878898 0.092968
C122  C     C_R   0.427941 0.661566 0.147018 -0.176129
C123  C     C_R   0.642237 0.364230 0.815618 0.071320
C124  C     C_R   0.677614 0.685298 0.878058 0.085829
C125  C     C_R   0.361780 0.635939 0.814063 0.071838
C126  C     C_R   0.364053 0.638230 0.185931 0.071851
C127  C     C_R   0.685609 0.677103 0.121089 0.092733
C128  C     C_R   0.635737 0.357770 0.184400 0.071288
C129  C     C_R   0.314707 0.322390 0.121949 0.085828
C130  C     C_R   0.866656 0.859215 0.313966 0.067871
C131  C     C_R   0.185416 0.821201 0.380854 0.093608
C132  C     C_R   0.133460 0.137593 0.313074 0.072311
C133  C     C_R   0.697483 0.603615 0.099425 -0.137510
C134  C     C_R   0.814586 0.178160 0.380945 0.098188
C135  C     C_R   0.821833 0.185408 0.619042 0.098182
C136  C     C_R   0.140809 0.133362 0.686016 0.067823
C137  C     C_R   0.178792 0.814589 0.619165 0.093623
C138  C     C_R   0.862411 0.866541 0.686929 0.072303
C139  C     C_R   0.766064 0.343870 0.748988 -0.005262
C140  C     C_R   0.699988 0.812966 0.814921 -0.030805
C141  C     C_R   0.245894 0.645787 0.731004 -0.011593
C142  C     C_R   0.311069 0.198321 0.797413 -0.036872
C143  C     C_R   0.801712 0.688972 0.202533 -0.036627
C144  C     C_R   0.572895 0.334316 0.144438 -0.175028
C145  C     C_R   0.656134 0.233917 0.250980 -0.005332
C146  C     C_R   0.187050 0.300026 0.185100 -0.030815
C147  C     C_R   0.354216 0.754104 0.269008 -0.011590
C148  C     C_R   0.313001 0.797304 0.319327 -0.031137
C149  C     C_R   0.145364 0.256285 0.234790 -0.006351
C150  C     C_R   0.697768 0.190321 0.301059 -0.045839
C151  C     C_R   0.843793 0.733446 0.251421 -0.007041
C152  C     C_R   0.266592 0.156246 0.748523 -0.007016
C153  C     C_R   0.202690 0.687004 0.680690 -0.031143
C154  C     C_R   0.743728 0.854658 0.765234 -0.006334
C155  C     C_R   0.303862 0.397612 0.103520 -0.136127
C156  C     C_R   0.809659 0.302239 0.698904 -0.045872
C157  C     C_R   0.685999 0.333694 0.752572 0.054884
C158  C     C_R   0.728258 0.744911 0.848469 0.072469
C159  C     C_R   0.321597 0.667294 0.748722 0.075487
C160  C     C_R   0.276929 0.254170 0.845259 0.079645
C161  C     C_R   0.745833 0.723100 0.154716 0.079649
C162  C     C_R   0.666253 0.313991 0.247449 0.054940
C163  C     C_R   0.255096 0.271749 0.151543 0.072471
C164  C     C_R   0.332703 0.678405 0.251278 0.075481
C165  C     C_R   0.243822 0.769915 0.350811 0.065072
C166  C     C_R   0.928492 0.835489 0.354887 -0.172175
C167  C     C_R   0.164461 0.179033 0.248391 0.067461
C168  C     C_R   0.755161 0.224718 0.346981 0.082082
C169  C     C_R   0.836979 0.813965 0.251199 0.060482
C170  C     C_R   0.186070 0.163046 0.748767 0.060567
C171  C     C_R   0.230078 0.756184 0.649207 0.065093
C172  C     C_R   0.820976 0.835548 0.751620 0.067430
C173  C     C_R   0.775267 0.244819 0.653010 0.082142
C174  C     C_R   0.226426 0.691579 0.340527 -0.190568
C175  C     C_R   0.224398 0.146571 0.205324 -0.198571
C176  C     C_R   0.758091 0.305180 0.351857 -0.195788
H1    H     H_    0.419042 0.248534 0.919510 0.080961
H2    H     H_    0.249176 0.926809 0.405514 0.104119
H3    H     H_    0.494625 0.247935 0.272301 0.264356
H4    H     H_    0.442234 0.159954 0.280925 0.258018
H5    H     H_    0.512535 0.171195 0.155506 0.173997
H6    H     H_    0.530611 0.088339 0.205696 0.209707
H7    H     H_    0.695908 0.707748 0.311478 0.262825
H8    H     H_    0.629191 0.647812 0.260203 0.278180
H9    H     H_    0.644570 0.632823 0.360309 0.256479
H10   H     H_    0.708911 0.544821 0.250839 0.192833
H11   H     H_    0.748011 0.557955 0.342813 0.194162
H12   H     H_    0.292287 0.304378 0.688776 0.262868
H13   H     H_    0.026055 0.197539 0.333177 0.129171
H14   H     H_    0.352415 0.371053 0.739883 0.278144
H15   H     H_    0.367159 0.355605 0.639750 0.256490
H16   H     H_    0.455244 0.291180 0.749190 0.192871
H17   H     H_    0.442068 0.252224 0.657167 0.194022
H18   H     H_    0.274636 0.548954 0.618325 0.262502
H19   H     H_    0.329701 0.502753 0.692024 0.272182
H20   H     H_    0.271275 0.447029 0.626539 0.265691
H21   H     H_    0.219918 0.464670 0.764003 0.194613
H22   H     H_    0.156453 0.477226 0.688514 0.206027
H23   H     H_    0.663875 0.732978 0.691080 0.259221
H24   H     H_    0.748551 0.082276 0.421855 0.085451
H25   H     H_    0.596482 0.674584 0.742421 0.272221
H26   H     H_    0.569512 0.715917 0.652934 0.252725
H27   H     H_    0.527146 0.776211 0.788273 0.179550
H28   H     H_    0.533482 0.830285 0.707077 0.199244
H29   H     H_    0.826488 0.469145 0.667786 0.259751
H30   H     H_    0.752029 0.505341 0.727646 0.264373
H31   H     H_    0.839984 0.557779 0.719037 0.258026
H32   H     H_    0.828790 0.487479 0.844445 0.174002
H33   H     H_    0.911640 0.469405 0.794246 0.209683
H34   H     H_    0.005947 0.389514 0.811887 0.281325
H35   H     H_    0.917705 0.251449 0.578117 0.085451
H36   H     H_    0.050919 0.311592 0.763374 0.264630
H37   H     H_    0.060644 0.404743 0.725607 0.267517
H38   H     H_    0.970655 0.319456 0.656228 0.183292
H39   H     H_    0.932979 0.408069 0.677975 0.214741
H40   H     H_    0.540075 0.947048 0.664849 0.256527
H41   H     H_    0.606988 0.013270 0.622982 0.256282
H42   H     H_    0.569929 0.935148 0.567103 0.263961
H43   H     H_    0.704408 0.920420 0.612811 0.191536
H44   H     H_    0.647221 0.842487 0.629362 0.215507
H45   H     H_    0.027280 0.521039 0.672028 0.270096
H46   H     H_    0.204874 0.029059 0.661791 0.133011
H47   H     H_    0.982087 0.591927 0.612201 0.259994
H48   H     H_    0.029021 0.511052 0.569176 0.263495
H49   H     H_    0.102097 0.639848 0.566502 0.177017
H50   H     H_    0.152227 0.559591 0.590449 0.211510
H51   H     H_    0.451797 0.143381 0.590960 0.265864
H52   H     H_    0.396057 0.065395 0.553075 0.256605
H53   H     H_    0.394882 0.156793 0.505920 0.259735
H54   H     H_    0.277695 0.125662 0.582950 0.200040
H55   H     H_    0.317240 0.215171 0.601979 0.214364
H56   H     H_    0.857131 0.547975 0.408525 0.266146
H57   H     H_    0.073180 0.750830 0.594518 0.104129
H58   H     H_    0.935118 0.603653 0.446493 0.256645
H59   H     H_    0.843771 0.604618 0.493762 0.259763
H60   H     H_    0.874832 0.722056 0.416986 0.199950
H61   H     H_    0.785255 0.682586 0.398069 0.214333
H62   H     H_    0.610557 0.994053 0.188047 0.281324
H63   H     H_    0.688364 0.949004 0.236683 0.264665
H64   H     H_    0.595154 0.939398 0.274323 0.267518
H65   H     H_    0.680536 0.029329 0.343743 0.183276
H66   H     H_    0.591932 0.067018 0.321995 0.214746
H67   H     H_    0.052961 0.459926 0.335186 0.256542
H68   H     H_    0.802479 0.973954 0.666837 0.129141
H69   H     H_    0.986761 0.393001 0.377068 0.256257
H70   H     H_    0.064884 0.430075 0.432933 0.263964
H71   H     H_    0.079633 0.295593 0.387220 0.191536
H72   H     H_    0.157548 0.352803 0.370658 0.215493
H73   H     H_    0.478934 0.972727 0.327999 0.270078
H74   H     H_    0.408084 0.017882 0.387895 0.259980
H75   H     H_    0.488985 0.970923 0.430844 0.263496
H76   H     H_    0.360160 0.897861 0.433524 0.177010
H77   H     H_    0.440418 0.847732 0.409559 0.211502
H78   H     H_    0.478053 0.950491 0.195547 0.267591
H79   H     H_    0.440086 0.729090 0.851551 0.081830
H80   H     H_    0.534725 0.879614 0.146631 0.263707
H81   H     H_    0.464557 0.933911 0.094637 0.265982
H82   H     H_    0.428499 0.798559 0.125236 0.191899
H83   H     H_    0.360083 0.864511 0.145898 0.216397
H84   H     H_    0.040945 0.494582 0.208925 0.266616
H85   H     H_    0.121009 0.535574 0.157829 0.252801
H86   H     H_    0.034413 0.511409 0.107490 0.262819
H87   H     H_    0.138875 0.415460 0.085857 0.176505
H88   H     H_    0.055957 0.378081 0.116028 0.212674
H89   H     H_    0.664045 0.049500 0.082524 0.259816
H90   H     H_    0.247995 0.415731 0.895452 0.100460
H91   H     H_    0.572184 0.092456 0.063612 0.252023
H92   H     H_    0.652740 0.113281 0.003457 0.258535
H93   H     H_    0.627056 0.220684 0.085031 0.197908
H94   H     H_    0.717836 0.185315 0.105396 0.214069
H95   H     H_    0.928288 0.476681 0.279178 0.256161
H96   H     H_    0.830259 0.469827 0.304715 0.252367
H97   H     H_    0.863572 0.424422 0.219548 0.260495
H98   H     H_    0.816060 0.528267 0.161451 0.173146
H99   H     H_    0.905958 0.565450 0.177160 0.204972
H100  H     H_    0.523545 0.071571 0.721141 0.256061
H101  H     H_    0.553684 0.276866 0.842542 0.107433
H102  H     H_    0.529866 0.169419 0.694729 0.252354
H103  H     H_    0.575657 0.136994 0.780069 0.260429
H104  H     H_    0.471769 0.183950 0.838427 0.172989
H105  H     H_    0.434578 0.094096 0.822648 0.204922
H106  H     H_    0.049518 0.521933 0.804449 0.267603
H107  H     H_    0.120401 0.465243 0.853333 0.263717
H108  H     H_    0.066109 0.535389 0.905363 0.265983
H109  H     H_    0.201451 0.571466 0.874766 0.191904
H110  H     H_    0.135497 0.639888 0.854124 0.216397
H111  H     H_    0.505309 0.958897 0.791098 0.266566
H112  H     H_    0.706617 0.469088 0.839064 0.132829
H113  H     H_    0.751755 0.584015 0.898636 0.088220
H114  H     H_    0.464437 0.878870 0.842347 0.252794
H115  H     H_    0.488580 0.965554 0.892544 0.262834
H116  H     H_    0.584628 0.861133 0.914187 0.176469
H117  H     H_    0.621892 0.944085 0.883973 0.212685
H118  H     H_    0.950517 0.336005 0.917391 0.259848
H119  H     H_    0.907536 0.427844 0.936353 0.252018
H120  H     H_    0.886765 0.347259 0.996489 0.258528
H121  H     H_    0.779330 0.372966 0.914948 0.197908
H122  H     H_    0.814689 0.282182 0.894582 0.214070
H123  H     H_    0.415984 0.248244 0.101364 0.088239
H124  H     H_    0.270900 0.559928 0.148437 0.081853
H125  H     H_    0.584261 0.752008 0.104543 0.100426
H126  H     H_    0.723101 0.446336 0.157502 0.107593
H127  H     H_    0.916299 0.252315 0.397963 0.093461
H128  H     H_    0.777950 0.946709 0.341495 0.105711
H129  H     H_    0.083459 0.748027 0.400880 0.084772
H130  H     H_    0.222190 0.052996 0.344220 0.095173
H131  H     H_    0.947000 0.777804 0.655777 0.095149
H132  H     H_    0.571278 0.747745 0.901993 0.100956
H133  H     H_    0.747689 0.083686 0.602036 0.093455
H134  H     H_    0.053306 0.222065 0.658496 0.105786
H135  H     H_    0.251968 0.916547 0.599147 0.084896
H136  H     H_    0.176004 0.665926 0.365980 0.120883
H137  H     H_    0.240306 0.087132 0.212877 0.139985
H138  H     H_    0.798818 0.333478 0.389506 0.122779
H139  H     H_    0.794938 0.910018 0.185450 0.118138
H140  H     H_    0.090020 0.205027 0.814558 0.118133
H141  H     H_    0.334067 0.824000 0.634028 0.120926
H142  H     H_    0.912871 0.759688 0.787122 0.139979
H143  H     H_    0.304748 0.525934 0.831180 0.129409
H144  H     H_    0.666512 0.201048 0.610592 0.122777
H145  H     H_    0.588573 0.283143 0.695252 0.123605
H146  H     H_    0.833517 0.681303 0.869919 0.121343
H147  H     H_    0.412453 0.746670 0.718308 0.127875
H148  H     H_    0.169018 0.291622 0.894692 0.124469
H149  H     H_    0.708329 0.831016 0.105333 0.124445
H150  H     H_    0.716612 0.411419 0.304918 0.123259
H151  H     H_    0.318692 0.166486 0.130081 0.121356
H152  H     H_    0.253328 0.587548 0.281687 0.127884
H153  H     H_    0.791270 0.194946 0.805441 0.261512
H154  H     H_    0.474058 0.695266 0.168813 0.129431
H155  H     H_    0.852281 0.125692 0.760029 0.276267
H156  H     H_    0.864717 0.146880 0.859581 0.258823
H157  H     H_    0.951411 0.206677 0.742380 0.186952
H158  H     H_    0.946182 0.245346 0.834260 0.194965
H159  H     H_    0.744828 0.965145 0.875537 0.262108
H160  H     H_    0.807385 0.002408 0.803225 0.272145
H161  H     H_    0.740394 0.065028 0.851388 0.267287
H162  H     H_    0.703682 0.028988 0.715609 0.192766
H163  H     H_    0.632651 0.015568 0.782743 0.214232
H164  H     H_    0.141360 0.756777 0.797051 0.265647
H165  H     H_    0.751459 0.581002 0.080419 0.080974
H166  H     H_    0.065632 0.804809 0.745936 0.273165
H167  H     H_    0.044857 0.753171 0.831501 0.249541
H168  H     H_    0.019481 0.692341 0.688947 0.176598
H169  H     H_    0.030783 0.639105 0.768696 0.200725
H170  H     H_    0.329364 0.031128 0.831991 0.259663
H171  H     H_    0.251791 0.996982 0.774590 0.264702
H172  H     H_    0.338135 0.941840 0.780853 0.262474
H173  H     H_    0.326512 0.010650 0.655657 0.173325
H174  H     H_    0.410294 0.029410 0.703447 0.206280
H175  H     H_    0.968837 0.670808 0.167621 0.259618
H176  H     H_    0.530900 0.293375 0.160921 0.132829
H177  H     H_    0.002784 0.748510 0.225021 0.264759
H178  H     H_    0.058228 0.662358 0.218632 0.262458
H179  H     H_    0.989641 0.673544 0.343909 0.173385
H180  H     H_    0.970884 0.589832 0.296002 0.206133
H181  H     H_    0.805070 0.208702 0.194548 0.261507
H182  H     H_    0.874312 0.147678 0.239960 0.276255
H183  H     H_    0.853132 0.135255 0.140403 0.258830
H184  H     H_    0.793315 0.048559 0.257595 0.186943
H185  H     H_    0.754654 0.053792 0.165712 0.194958
H186  H     H_    0.034868 0.255157 0.124511 0.262120
H187  H     H_    0.252262 0.428727 0.098022 0.100914
H188  H     H_    0.997589 0.192621 0.196832 0.272153
H189  H     H_    0.934987 0.259621 0.148659 0.267276
H190  H     H_    0.971036 0.296349 0.284432 0.192773
H191  H     H_    0.984485 0.367360 0.217288 0.214248
H192  H     H_    0.243208 0.858658 0.202999 0.265647
H193  H     H_    0.195198 0.934409 0.254101 0.273158
H194  H     H_    0.246843 0.955155 0.168534 0.249529
H195  H     H_    0.307678 0.980519 0.311104 0.176598
H196  H     H_    0.360902 0.969226 0.231346 0.200714
H197  H     H_    0.451101 0.725318 0.381641 0.262518
H198  H     H_    0.970962 0.795153 0.338177 0.132976
H199  H     H_    0.497284 0.670290 0.307897 0.272167
H200  H     H_    0.553023 0.728686 0.373386 0.265722
H201  H     H_    0.535333 0.780120 0.235968 0.194616
H202  H     H_    0.522777 0.843544 0.311494 0.206055
H203  H     H_    0.267051 0.336163 0.308934 0.259216
H204  H     H_    0.325428 0.403556 0.257571 0.272229
H205  H     H_    0.284111 0.430533 0.347062 0.252727
H206  H     H_    0.223782 0.472881 0.211733 0.179524
H207  H     H_    0.169723 0.466534 0.292941 0.199262
H208  H     H_    0.530865 0.173504 0.332166 0.259762
N1    N     N_R   0.425360 0.368540 0.922560 -0.034839
N2    N     N_R   0.131460 0.925360 0.422560 -0.038687
N3    N     N_R   0.074640 0.131460 0.422560 -0.042017
N4    N     N_R   0.868540 0.074640 0.422560 -0.034550
N5    N     N_R   0.925360 0.131460 0.577440 -0.034544
N6    N     N_R   0.131460 0.074640 0.577440 -0.045248
N7    N     N_R   0.074640 0.868540 0.577440 -0.038679
N8    N     N_R   0.868540 0.925360 0.577440 -0.042015
N9    N     N_R   0.425340 0.631500 0.922560 -0.039341
N10   N     N_R   0.368500 0.425340 0.922560 -0.034624
N11   N     N_R   0.574660 0.368500 0.922560 -0.038287
N12   N     N_R   0.631460 0.425360 0.922560 -0.044416
N13   N     N_R   0.631500 0.574660 0.922560 -0.037106
N14   N     N_R   0.425340 0.368500 0.077440 -0.037105
N15   N     N_R   0.368500 0.574660 0.077440 -0.039337
N16   N     N_R   0.574660 0.631500 0.077440 -0.034605
N17   N     N_R   0.631500 0.425340 0.077440 -0.038305
N18   N     N_R   0.925340 0.131500 0.422560 -0.034882
N19   N     N_R   0.868500 0.925340 0.422560 -0.037623
N20   N     N_R   0.074660 0.868500 0.422560 -0.037018
N21   N     N_R   0.131500 0.074660 0.422560 -0.039743
N22   N     N_R   0.925340 0.868500 0.577440 -0.039750
N23   N     N_R   0.574640 0.631460 0.922560 -0.037333
N24   N     N_R   0.868500 0.074660 0.577440 -0.034875
N25   N     N_R   0.074660 0.131500 0.577440 -0.037624
N26   N     N_R   0.131500 0.925340 0.577440 -0.037008
N27   N     N_R   0.368540 0.574640 0.922560 -0.041896
N28   N     N_R   0.425360 0.631460 0.077440 -0.041897
N29   N     N_R   0.631460 0.574640 0.077440 -0.034825
N30   N     N_R   0.574640 0.368540 0.077440 -0.044419
N31   N     N_R   0.368540 0.425360 0.077440 -0.037333
N32   N     N_R   0.925360 0.868540 0.422560 -0.045231
Ni1   Ni    Ni4+2 0.500000 0.369720 0.000000 0.203264
Ni2   Ni    Ni4+2 0.630280 0.500000 0.000000 0.203260
Ni3   Ni    Ni4+2 0.500000 0.630280 0.000000 0.209917
Ni4   Ni    Ni4+2 0.369720 0.500000 0.000000 0.209908
Ni5   Ni    Ni4+2 1.000000 0.869720 0.500000 0.203417
Ni6   Ni    Ni4+2 0.130280 1.000000 0.500000 0.203411
Ni7   Ni    Ni4+2 0.000000 0.130280 0.500000 0.207126
Ni8   Ni    Ni4+2 0.869720 1.000000 0.500000 0.207135

loop_
_geom_bond_atom_site_label_1
_geom_bond_atom_site_label_2
_ccdc_geom_bond_type
C62   H58   S    
C83   C102  S    
C24   N4    A    
C68   C138  A    
C19   C20   S    
C28   H185  S    
C89   N12   A    
C4    H140  S    
C17   H157  S    
C51   H30   S    
C5    H141  S    
C109  N15   A    
C33   H192  S    
C75   H91   S    
C110  N16   A    
C48   H27   S    
C135  C173  S    
C47   H19   S    
C43   C99   S    
C19   C87   S    
C147  C164  A    
C66   H70   S    
N17   Ni2   S    
C82   H107  S    
C76   C98   S    
C63   H65   S    
C80   H100  S    
C41   H11   S    
C37   H206  S    
C18   H156  S    
N30   Ni1   S    
C44   H14   S    
C12   C161  A    
C40   H4    S    
N1    N10   A    
C50   H33   S    
C124  C158  S    
C111  C125  A    
C67   C94   S    
C112  H126  S    
C64   H62   S    
C85   C103  S    
C69   H73   S    
C154  C172  A    
C143  C151  A    
C59   C60   S    
C21   C22   S    
C148  C165  A    
C114  C130  A    
N5    N24   A    
C107  C124  A    
C8    C157  A    
C2    N2    A    
C55   H42   S    
C45   C47   S    
C36   H200  S    
C156  C173  A    
C60   H53   S    
C77   H97   S    
N11   Ni1   S    
C90   C152  S    
C3    C169  A    
N8    Ni8   S    
N22   Ni5   S    
C52   H39   S    
C38   H204  S    
C86   H119  S    
C37   C96   S    
C26   H180  S    
C100  C124  A    
C43   C44   S    
C27   H178  S    
C37   C38   S    
C152  C170  A    
N2    Ni6   S    
C83   H116  S    
C150  C168  A    
C128  C162  S    
C2    C131  A    
C77   H96   S    
C21   H169  S    
C10   H147  S    
C128  C144  A    
C30   H190  S    
C70   H83   S    
C62   H56   S    
C120  H135  S    
C104  N9    A    
C75   H89   S    
C24   C134  A    
C9    H146  S    
C72   H87   S    
C97   C145  S    
C72   C73   S    
N8    N22   A    
C58   H47   S    
C111  H143  S    
C117  N22   A    
C119  C136  A    
C46   H46   S    
N4    N18   A    
C45   H22   S    
C14   H150  S    
N15   N28   A    
C9    C158  A    
C13   C132  A    
C100  N23   A    
C25   H171  S    
N19   Ni8   S    
C69   H75   S    
C72   C96   S    
C68   N8    A    
C84   H114  S    
C139  C157  A    
C118  H133  S    
C78   C99   S    
C143  C161  A    
C50   H32   S    
C122  C126  A    
C147  C148  A    
C82   H108  S    
C6    C9    A    
C74   H94   S    
C29   H181  S    
C7    C8    A    
C6    C172  A    
C85   C86   S    
C16   C164  A    
C129  C163  S    
C4    C170  A    
C34   H201  S    
N5    Ni7   S    
C78   C80   S    
C56   C88   S    
C66   H67   S    
C130  C169  S    
C45   H21   S    
C174  H136  S    
C20   H159  S    
C140  C158  A    
C122  N28   A    
C141  C159  A    
C85   H121  S    
C53   H34   S    
C119  H134  S    
C80   H103  S    
C52   C79   S    
C15   H151  S    
C145  C150  A    
C6    H142  S    
C65   C93   S    
C21   C88   S    
C91   C98   S    
C79   C103  S    
C58   H45   S    
C73   H85   S    
C92   C97   S    
C22   H166  S    
C32   H195  S    
C94   C148  S    
C49   H25   S    
C64   H64   S    
N2    N20   A    
C95   C147  S    
N28   Ni3   S    
C35   C135  A    
C39   C40   S    
C123  C157  S    
C42   H8    S    
C165  C174  A    
C76   H99   S    
C60   H52   S    
C3    H139  S    
C78   H105  S    
C31   H188  S    
C27   H175  S    
C83   C84   S    
C116  C132  A    
C52   H38   S    
C17   C18   S    
C57   C137  A    
C24   H24   S    
C33   H194  S    
C42   H9    S    
C65   H72   S    
C136  C170  S    
C43   H16   S    
C1    N1    A    
C134  C168  S    
C144  H176  S    
C81   H109  S    
C82   H106  S    
C90   C99   S    
C52   C53   S    
N13   N23   A    
C167  C175  A    
C49   H23   S    
C108  H123  S    
C16   C174  A    
C168  C176  A    
C54   C55   S    
C53   H37   S    
C62   H59   S    
N21   Ni6   S    
N4    Ni8   S    
C51   H29   S    
C166  N32   A    
C116  H130  S    
N27   Ni4   S    
C71   H81   S    
C19   H162  S    
C96   C146  S    
C48   H28   S    
C151  C169  A    
C155  H187  S    
C43   H17   S    
C35   N5    A    
C119  N25   A    
C20   H161  S    
C141  C153  A    
C53   H36   S    
N29   Ni2   S    
C56   C58   S    
C41   H10   S    
C34   C36   S    
C61   C62   S    
C1    C121  A    
C39   H6    S    
C63   C64   S    
C109  C126  A    
C50   C103  S    
C131  C165  S    
C110  H125  S    
N10   Ni4   S    
C2    H2    S    
C61   C91   S    
C13   N3    A    
C22   H164  S    
N18   Ni7   S    
C41   C42   S    
C28   H184  S    
C93   C149  S    
C117  C138  A    
C149  C167  A    
C132  C167  S    
C122  H154  S    
N14   Ni1   S    
C54   H43   S    
C55   H41   S    
C112  N17   A    
C36   H197  S    
C29   H183  S    
C26   C27   S    
C104  H79   S    
C56   H49   S    
C28   C29   S    
C30   C31   S    
C31   H186  S    
C39   C97   S    
N6    N25   A    
C144  N30   A    
C166  H198  S    
C38   H205  S    
C86   H120  S    
N9    N27   A    
C142  C152  A    
C27   H177  S    
C14   C176  A    
C47   H18   S    
C104  C125  A    
C121  C160  S    
C77   H95   S    
C70   C71   S    
C23   H174  S    
C30   H191  S    
C67   H76   S    
C59   H55   S    
C80   H102  S    
N20   Ni5   S    
C115  H129  S    
C17   H158  S    
C11   C160  A    
C88   C101  S    
C75   H92   S    
C31   H189  S    
C7    H144  S    
C72   H88   S    
C138  C172  S    
C47   H20   S    
C34   C95   S    
C129  C155  A    
C58   H48   S    
C81   C101  S    
C26   C91   S    
C63   H66   S    
C111  N27   A    
C37   H207  S    
C14   C162  A    
C12   H149  S    
C18   H155  S    
C146  C149  A    
C130  C166  A    
C109  H124  S    
C48   C102  S    
C108  N14   A    
C50   C51   S    
C23   C90   S    
N1    Ni1   S    
C106  H101  S    
C102  C140  S    
C4    C11   A    
C25   H170  S    
C45   C101  S    
C69   H74   S    
C48   C49   S    
C84   H111  S    
C113  C134  A    
C92   C150  S    
N3    N21   A    
C175  H137  S    
C40   H208  S    
N9    Ni3   S    
C36   H199  S    
C105  N10   A    
C127  C133  A    
N11   N12   A    
C125  C159  S    
C15   C175  A    
C18   H153  S    
C38   H203  S    
C86   H118  S    
C26   H179  S    
C32   C33   S    
C8    H145  S    
C34   H202  S    
C19   H163  S    
C51   H31   S    
C94   C95   S    
C112  C128  A    
C20   H160  S    
C155  N31   A    
C70   H82   S    
C89   H112  S    
N31   Ni4   S    
C120  C137  A    
N16   N29   A    
C115  N20   A    
C118  C135  A    
C66   H69   S    
C113  N18   A    
C32   C94   S    
C176  H138  S    
C98   C143  S    
C46   N6    A    
C99   C142  S    
N14   N31   A    
C120  N26   A    
C81   C82   S    
C73   H84   S    
C71   H78   S    
C115  C131  A    
C22   H167  S    
C32   H196  S    
C118  N24   A    
N7    N26   A    
C30   C93   S    
C44   H15   S    
C54   C87   S    
C145  C162  A    
N12   Ni2   S    
C40   H3    S    
C17   C79   S    
C13   H13   S    
C11   H148  S    
C35   H35   S    
C25   H172  S    
C3    C12   A    
C79   C156  S    
C1    H1    S    
C117  H131  S    
C64   H63   S    
C106  C123  A    
N6    Ni6   S    
C33   H193  S    
C110  C127  A    
C65   H71   S    
C133  H165  S    
N13   Ni2   S    
C127  C161  S    
N25   Ni7   S    
C106  N11   A    
C101  C141  S    
C126  C164  S    
N19   N32   A    
N24   Ni8   S    
C74   H93   S    
C29   H182  S    
C74   C97   S    
C133  N29   A    
C67   H77   S    
C87   C154  S    
C74   C75   S    
C76   H98   S    
C76   C77   S    
C55   H40   S    
C57   N7    A    
C89   C123  A    
C105  H90   S    
C15   C163  A    
C46   C136  A    
C67   C69   S    
C59   C90   S    
C63   C92   S    
C103  C139  S    
C87   C102  S    
C85   H122  S    
C16   H152  S    
C113  H127  S    
C153  C171  A    
C114  H128  S    
C5    C171  A    
C105  C121  A    
C28   C92   S    
N32   Ni5   S    
C108  C129  A    
C39   H5    S    
C44   H12   S    
C114  N19   A    
C93   C96   S    
N16   Ni3   S    
C10   C159  A    
N15   Ni4   S    
C73   H86   S    
C49   H26   S    
C142  C160  A    
C57   H57   S    
C54   H44   S    
C42   H7    S    
C107  N13   A    
C146  C163  A    
N23   Ni3   S    
C56   H50   S    
C60   H51   S    
C61   H61   S    
C88   C153  S    
N7    Ni5   S    
C70   C95   S    
C21   H168  S    
C78   H104  S    
C5    C10   A    
C91   C151  S    
N17   N30   A    
C83   H117  S    
C84   H115  S    
C139  C156  A    
C68   H68   S    
C7    C173  A    
C116  N21   A    
C23   C25   S    
C71   H80   S    
C137  C171  S    
N3    Ni7   S    
C100  H132  S    
C107  H113  S    
C65   C66   S    
C61   H60   S    
C41   C98   S    
N26   Ni6   S    
C81   H110  S    
C59   H54   S    
C23   H173  S    
C140  C154  A    
