data_mof_unit_1496.cif
_audit_creation_date              2013-03-05T15:47:07-0500
_audit_creation_method            fapswitch 2.2
_symmetry_space_group_name_H-M    P1
_symmetry_Int_Tables_number       1
_space_group_crystal_system       triclinic
_cell_length_a                    19.709543
_cell_length_b                    11.349007
_cell_length_c                    18.72222
_cell_angle_alpha                 90.000548
_cell_angle_beta                  90.90968
_cell_angle_gamma                 90.000166
_cell_volume                      4187.32839951

loop_
_atom_site_label
_atom_site_type_symbol
_atom_site_description
_atom_site_fract_x
_atom_site_fract_y
_atom_site_fract_z
_atom_type_partial_charge
O1    O     O_R   0.957210 0.449410 0.665480 -0.521173
O2    O     O_R   0.042790 0.449410 0.334520 -0.521173
O3    O     O_R   0.457210 0.949410 0.665480 -0.521176
O4    O     O_R   0.542790 0.949410 0.334520 -0.521173
O5    O     O_R   0.820730 0.541240 0.668250 -0.515135
O6    O     O_R   0.179270 0.541240 0.331750 -0.515136
O7    O     O_R   0.320730 0.041240 0.668250 -0.515140
O8    O     O_R   0.679270 0.041240 0.331750 -0.515139
C1    C     C_R   0.761092 0.523572 0.639290 0.534824
C2    C     C_R   0.238910 0.523580 0.360708 0.534816
C3    C     C_R   0.261099 0.023541 0.639282 0.534856
C4    C     C_R   0.738902 0.023550 0.360715 0.534848
O9    O     O_R   0.714240 0.455060 0.663710 -0.530632
O10   O     O_R   0.285760 0.455060 0.336290 -0.530631
O11   O     O_R   0.214240 0.955060 0.663710 -0.530638
O12   O     O_R   0.785760 0.955060 0.336290 -0.530634
O13   O     O_R   0.736780 0.204870 0.675910 -0.506484
O14   O     O_R   0.263220 0.204870 0.324090 -0.506482
O15   O     O_R   0.236780 0.704870 0.675910 -0.506486
O16   O     O_R   0.763220 0.704870 0.324090 -0.506489
C5    C     C_R   0.773873 0.120940 0.649590 0.547366
C6    C     C_R   0.226119 0.120959 0.350416 0.547391
C7    C     C_R   0.273865 0.620918 0.649597 0.547357
C8    C     C_R   0.726126 0.620940 0.350409 0.547362
O17   O     O_R   0.833070 0.087590 0.673490 -0.522581
O18   O     O_R   0.166930 0.087590 0.326510 -0.522587
O19   O     O_R   0.333070 0.587590 0.673490 -0.522579
O20   O     O_R   0.666930 0.587590 0.326510 -0.522585
O21   O     O_R   0.946890 0.246800 0.676300 -0.514327
O22   O     O_R   0.053110 0.246800 0.323700 -0.514339
O23   O     O_R   0.446890 0.746800 0.676300 -0.514335
O24   O     O_R   0.553110 0.746800 0.323700 -0.514335
C9    C     C_R   0.968558 0.342248 0.644837 0.540109
C10   C     C_R   0.031442 0.342249 0.355163 0.540103
C11   C     C_R   0.468554 0.842249 0.644835 0.540094
C12   C     C_R   0.531447 0.842250 0.355165 0.540109
O25   O     O_R   0.956650 0.457120 0.827980 -0.490970
O26   O     O_R   0.043350 0.457120 0.172020 -0.490960
O27   O     O_R   0.456650 0.957120 0.827980 -0.490961
O28   O     O_R   0.543350 0.957120 0.172020 -0.490970
O29   O     O_R   0.820220 0.548390 0.818890 -0.491244
O30   O     O_R   0.179780 0.548390 0.181110 -0.491243
O31   O     O_R   0.320220 0.048390 0.818890 -0.491236
O32   O     O_R   0.679780 0.048390 0.181110 -0.491242
C13   C     C_R   0.760889 0.532505 0.849124 0.541043
C14   C     C_R   0.239113 0.532513 0.150879 0.541047
C15   C     C_R   0.260888 0.032511 0.849122 0.541058
C16   C     C_R   0.739111 0.032505 0.150876 0.541046
O33   O     O_R   0.713680 0.462770 0.826210 -0.520879
O34   O     O_R   0.286320 0.462770 0.173790 -0.520877
O35   O     O_R   0.213680 0.962770 0.826210 -0.520877
O36   O     O_R   0.786320 0.962770 0.173790 -0.520874
O37   O     O_R   0.736260 0.212010 0.826560 -0.445711
O38   O     O_R   0.263740 0.212010 0.173440 -0.445693
O39   O     O_R   0.236260 0.712010 0.826560 -0.445702
O40   O     O_R   0.763740 0.712010 0.173440 -0.445712
C17   C     C_R   0.776403 0.135875 0.859838 0.600592
C18   C     C_R   0.223594 0.135881 0.140160 0.600631
C19   C     C_R   0.276406 0.635881 0.859840 0.600623
C20   C     C_R   0.723595 0.635879 0.140161 0.600583
O41   O     O_R   0.832520 0.095300 0.836000 -0.477106
O42   O     O_R   0.167480 0.095300 0.164000 -0.477095
O43   O     O_R   0.332520 0.595300 0.836000 -0.477097
O44   O     O_R   0.667480 0.595300 0.164000 -0.477103
O45   O     O_R   0.946380 0.253940 0.826940 -0.508892
O46   O     O_R   0.053620 0.253940 0.173060 -0.508893
O47   O     O_R   0.446380 0.753940 0.826940 -0.508892
O48   O     O_R   0.553620 0.753940 0.173060 -0.508889
C21   C     C_R   0.969552 0.353068 0.853429 0.563200
C22   C     C_R   0.030426 0.353063 0.146581 0.563190
C23   C     C_R   0.469582 0.853063 0.853416 0.563176
C24   C     C_R   0.530444 0.853066 0.146573 0.563196
Cr1   Cr    Cr6+3 0.885690 0.492860 0.745310 1.049596
Cr2   Cr    Cr6+3 0.114310 0.492860 0.254690 1.049597
Cr3   Cr    Cr6+3 0.385690 0.992860 0.745310 1.049600
Cr4   Cr    Cr6+3 0.614310 0.992860 0.254690 1.049594
Cr5   Cr    Cr6+3 0.729880 0.332270 0.748190 1.065438
Cr6   Cr    Cr6+3 0.270120 0.332270 0.251810 1.065448
Cr7   Cr    Cr6+3 0.229880 0.832270 0.748190 1.065439
Cr8   Cr    Cr6+3 0.770120 0.832270 0.251810 1.065438
Cr9   Cr    Cr6+3 0.888120 0.178590 0.753010 1.046725
Cr10  Cr    Cr6+3 0.111880 0.178590 0.246990 1.046727
Cr11  Cr    Cr6+3 0.388120 0.678590 0.753010 1.046724
Cr12  Cr    Cr6+3 0.611880 0.678590 0.246990 1.046723
O49   O     O_3   0.834560 0.334570 0.748840 -0.312504
O50   O     O_3   0.165440 0.334570 0.251160 -0.312504
O51   O     O_3   0.334560 0.834570 0.748840 -0.312498
O52   O     O_3   0.665440 0.834570 0.251160 -0.312513
C25   C     C_3   0.687506 0.131663 0.464261 -0.233858
C26   C     C_3   0.312489 0.131660 0.535740 -0.233872
C27   C     C_3   0.187502 0.631661 0.464263 -0.233873
C28   C     C_3   0.812493 0.631659 0.535739 -0.233885
H1    H     H_    0.638714 0.094509 0.448634 0.133956
H2    H     H_    0.361279 0.094505 0.551360 0.133954
H3    H     H_    0.138722 0.594479 0.448636 0.133972
H4    H     H_    0.861272 0.594477 0.551358 0.133969
H5    H     H_    0.687697 0.219807 0.438862 0.111750
H6    H     H_    0.312298 0.219794 0.561144 0.111763
H7    H     H_    0.187674 0.719802 0.438868 0.111745
H8    H     H_    0.812320 0.719791 0.561138 0.111756
C29   C     C_3   0.692553 0.145109 0.545461 -0.232547
C30   C     C_3   0.307440 0.145117 0.454542 -0.232549
C31   C     C_3   0.192547 0.645096 0.545465 -0.232542
C32   C     C_3   0.807446 0.645106 0.454538 -0.232542
H9    H     H_    0.687579 0.237232 0.560731 0.137492
H10   H     H_    0.312417 0.237241 0.439275 0.137481
H11   H     H_    0.187563 0.737213 0.560746 0.137511
H12   H     H_    0.812432 0.737224 0.439261 0.137499
H13   H     H_    0.648635 0.101521 0.570527 0.115456
H14   H     H_    0.351357 0.101529 0.429471 0.115465
H15   H     H_    0.148631 0.601490 0.570527 0.115435
H16   H     H_    0.851361 0.601500 0.429472 0.115443
H17   H     H_    0.722466 0.869470 0.462847 0.106515
H18   H     H_    0.277538 0.869467 0.537134 0.106508
H19   H     H_    0.222490 0.369493 0.462809 0.106530
H20   H     H_    0.777514 0.369489 0.537173 0.106523
H21   H     H_    0.705128 0.924291 0.583160 0.112234
H22   H     H_    0.294858 0.924308 0.416823 0.112247
H23   H     H_    0.205121 0.424268 0.583132 0.112236
H24   H     H_    0.794866 0.424288 0.416852 0.112240
C33   C     C_3   0.756772 0.939419 0.480531 -0.222579
C34   C     C_3   0.243229 0.939412 0.519462 -0.222597
C35   C     C_3   0.256788 0.439441 0.480514 -0.222546
C36   C     C_3   0.743212 0.439437 0.519479 -0.222561
C37   C     C_3   0.810820 0.130678 0.450026 -0.259354
C38   C     C_3   0.189176 0.130656 0.549983 -0.259323
C39   C     C_3   0.310814 0.630736 0.450032 -0.259356
C40   C     C_3   0.689183 0.630719 0.549979 -0.259325
C41   C     C_3   0.747376 0.056604 0.436680 0.065349
C42   C     C_3   0.252623 0.056593 0.563319 0.065348
C43   C     C_3   0.247382 0.556635 0.436675 0.065335
C44   C     C_3   0.752618 0.556625 0.563325 0.065334
H25   H     H_    0.855154 0.090500 0.423475 0.126111
H26   H     H_    0.144842 0.090455 0.576529 0.126122
H27   H     H_    0.355152 0.590594 0.423462 0.126084
H28   H     H_    0.644845 0.590558 0.576546 0.126091
H29   H     H_    0.804309 0.220756 0.428244 0.108382
H30   H     H_    0.195683 0.220731 0.571779 0.108381
H31   H     H_    0.304285 0.720833 0.428273 0.108383
H32   H     H_    0.695710 0.720814 0.571750 0.108377
C45   C     C_3   0.759788 0.090619 0.574202 0.062159
C46   C     C_3   0.240205 0.090631 0.425802 0.062152
C47   C     C_3   0.259783 0.590608 0.574205 0.062166
C48   C     C_3   0.740209 0.590623 0.425799 0.062161
C49   C     C_3   0.753378 0.958347 0.561715 -0.259017
C50   C     C_3   0.246614 0.958358 0.438279 -0.259008
C51   C     C_3   0.253376 0.458338 0.561703 -0.259043
C52   C     C_3   0.746616 0.458351 0.438292 -0.259037
C53   C     C_3   0.822655 0.133809 0.531154 -0.219659
C54   C     C_3   0.177340 0.133810 0.468855 -0.219666
C55   C     C_3   0.322653 0.633812 0.531167 -0.219592
C56   C     C_3   0.677341 0.633816 0.468843 -0.219593
H33   H     H_    0.841145 0.219800 0.549236 0.109266
H34   H     H_    0.158846 0.219806 0.450783 0.109250
H35   H     H_    0.341173 0.719780 0.549291 0.109288
H36   H     H_    0.658814 0.719787 0.450728 0.109272
H37   H     H_    0.863191 0.068542 0.542435 0.129978
H38   H     H_    0.136802 0.068545 0.457568 0.129970
H39   H     H_    0.363178 0.568484 0.542425 0.129961
H40   H     H_    0.636817 0.568481 0.457581 0.129950
H41   H     H_    0.809141 0.909161 0.470508 0.126577
H42   H     H_    0.190863 0.909139 0.529489 0.126568
H43   H     H_    0.309165 0.409201 0.470492 0.126576
H44   H     H_    0.690839 0.409183 0.529505 0.126566
H45   H     H_    0.795345 0.910421 0.589383 0.127729
H46   H     H_    0.204644 0.910439 0.410614 0.127742
H47   H     H_    0.295339 0.410407 0.589377 0.127712
H48   H     H_    0.704650 0.410426 0.410620 0.127722
C57   C     C_3   0.004092 0.205641 0.459082 -0.231843
C58   C     C_3   0.995905 0.205640 0.540914 -0.231845
C59   C     C_3   0.504103 0.705646 0.459083 -0.231859
C60   C     C_3   0.495896 0.705644 0.540913 -0.231859
H49   H     H_    0.046688 0.151669 0.443453 0.129921
H50   H     H_    0.953305 0.151676 0.556540 0.129919
H51   H     H_    0.546714 0.651703 0.443471 0.129923
H52   H     H_    0.453282 0.651707 0.556521 0.129920
H53   H     H_    0.959823 0.161999 0.433408 0.111493
H54   H     H_    0.040172 0.161989 0.566588 0.111497
H55   H     H_    0.459849 0.661982 0.433397 0.111507
H56   H     H_    0.540148 0.661972 0.566598 0.111508
H57   H     H_    0.616510 0.890238 0.458573 0.107771
H58   H     H_    0.383492 0.890218 0.541425 0.107770
H59   H     H_    0.116508 0.390217 0.458566 0.107774
H60   H     H_    0.883494 0.390204 0.541432 0.107773
H61   H     H_    0.599552 0.835462 0.578825 0.109674
H62   H     H_    0.400449 0.835464 0.421173 0.109678
H63   H     H_    0.099555 0.335470 0.578823 0.109668
H64   H     H_    0.900446 0.335473 0.421175 0.109665
C61   C     C_3   0.064636 0.405942 0.475642 -0.219776
C62   C     C_3   0.935365 0.405940 0.524359 -0.219779
C63   C     C_3   0.564636 0.905952 0.475646 -0.219786
C64   C     C_3   0.435364 0.905948 0.524355 -0.219787
C65   C     C_3   0.942065 0.390635 0.443377 -0.256730
C66   C     C_3   0.057936 0.390632 0.556623 -0.256729
C67   C     C_3   0.442067 0.890634 0.443375 -0.256713
C68   C     C_3   0.557934 0.890631 0.556626 -0.256714
C69   C     C_3   0.010889 0.333471 0.431026 0.061182
C70   C     C_3   0.989111 0.333469 0.568974 0.061175
C71   C     C_3   0.510893 0.833475 0.431027 0.061170
C72   C     C_3   0.489108 0.833473 0.568973 0.061169
H65   H     H_    0.938901 0.477704 0.416438 0.132164
H66   H     H_    0.061099 0.477698 0.583565 0.132164
H67   H     H_    0.438900 0.977701 0.416432 0.132170
H68   H     H_    0.561100 0.977695 0.583571 0.132170
H69   H     H_    0.947082 0.499770 0.535018 0.130720
H70   H     H_    0.052915 0.499771 0.464987 0.130716
H71   H     H_    0.447084 0.999777 0.535013 0.130718
H72   H     H_    0.552911 0.999780 0.464992 0.130713
C73   C     C_3   0.814416 0.008888 0.047082 -0.203110
C74   C     C_3   0.185579 0.008918 0.952911 -0.203153
C75   C     C_3   0.314423 0.508921 0.047089 -0.203151
C76   C     C_3   0.685583 0.508888 0.952917 -0.203107
H73   H     H_    0.811919 0.914773 0.054587 0.184402
H74   H     H_    0.188062 0.914816 0.945408 0.184417
H75   H     H_    0.311940 0.414819 0.054591 0.184418
H76   H     H_    0.688080 0.414774 0.945412 0.184402
H77   H     H_    0.859495 0.037116 0.079657 0.149524
H78   H     H_    0.140508 0.037174 0.920337 0.149500
H79   H     H_    0.359494 0.537178 0.079664 0.149499
H80   H     H_    0.640504 0.537113 0.920342 0.149524
C77   C     C_3   0.826523 0.038237 0.970185 -0.009938
C78   C     C_3   0.173469 0.038263 0.029806 -0.009977
C79   C     C_3   0.326532 0.538267 0.970194 -0.009974
C80   C     C_3   0.673474 0.538239 0.029813 -0.009940
H81   H     H_    0.866287 0.100876 0.971494 0.148422
H82   H     H_    0.133712 0.100913 0.028498 0.148404
H83   H     H_    0.366289 0.600919 0.971503 0.148402
H84   H     H_    0.633711 0.600876 0.028505 0.148422
H85   H     H_    0.662479 0.950308 0.047034 0.081895
H86   H     H_    0.337508 0.950299 0.952972 0.081876
H87   H     H_    0.162495 0.450297 0.047031 0.081874
H88   H     H_    0.837518 0.450310 0.952963 0.081900
H89   H     H_    0.715805 0.934130 0.933317 0.135208
H90   H     H_    0.284168 0.934117 0.066664 0.135224
H91   H     H_    0.215834 0.434115 0.933336 0.135225
H92   H     H_    0.784189 0.434128 0.066681 0.135217
C81   C     C_3   0.685075 0.031522 0.028048 -0.236409
C82   C     C_3   0.314924 0.031515 0.971953 -0.236386
C83   C     C_3   0.185078 0.531514 0.028049 -0.236382
C84   C     C_3   0.814923 0.531524 0.971951 -0.236413
C85   C     C_3   0.760385 0.198698 0.063286 -0.286245
C86   C     C_3   0.239631 0.198716 0.936716 -0.286245
C87   C     C_3   0.260370 0.698718 0.063285 -0.286245
C88   C     C_3   0.739612 0.698698 0.936714 -0.286251
C89   C     C_3   0.748709 0.067897 0.074646 -0.010460
C90   C     C_3   0.251293 0.067911 0.925351 -0.010451
C91   C     C_3   0.248709 0.567913 0.074650 -0.010452
C92   C     C_3   0.751289 0.567898 0.925353 -0.010457
H93   H     H_    0.723495 0.248793 0.094315 0.199318
H94   H     H_    0.276517 0.248807 0.905689 0.199326
H95   H     H_    0.223484 0.748808 0.094313 0.199327
H96   H     H_    0.776500 0.748793 0.905683 0.199315
H97   H     H_    0.810989 0.225812 0.083687 0.120997
H98   H     H_    0.189032 0.225839 0.916322 0.121005
H99   H     H_    0.310969 0.725843 0.083679 0.121003
H100  H     H_    0.689007 0.725810 0.916315 0.120993
C93   C     C_3   0.764077 0.104614 0.936390 0.048452
C94   C     C_3   0.235920 0.104622 0.063607 0.048465
C95   C     C_3   0.264080 0.604623 0.936393 0.048466
C96   C     C_3   0.735921 0.604616 0.063609 0.048442
C97   C     C_3   0.701944 0.025899 0.946941 0.064838
C98   C     C_3   0.298044 0.025886 0.053055 0.064893
C99   C     C_3   0.201958 0.525885 0.946946 0.064897
C100  C     C_3   0.798053 0.525900 0.053058 0.064833
C101  C     C_3   0.753458 0.220364 0.981612 -0.274097
C102  C     C_3   0.246553 0.220374 0.018392 -0.274074
C103  C     C_3   0.253446 0.720375 0.981609 -0.274071
C104  C     C_3   0.746542 0.720366 0.018387 -0.274099
H101  H     H_    0.784183 0.293509 0.964229 0.083819
H102  H     H_    0.215800 0.293475 0.035772 0.083796
H103  H     H_    0.284199 0.793478 0.964229 0.083796
H104  H     H_    0.715823 0.793519 0.035773 0.083829
H105  H     H_    0.701018 0.247591 0.973601 0.217900
H106  H     H_    0.298981 0.247641 0.026421 0.217876
H107  H     H_    0.201018 0.747640 0.973582 0.217879
H108  H     H_    0.798985 0.747585 0.026393 0.217892
H109  H     H_    0.647169 0.102087 0.035973 0.186502
H110  H     H_    0.352840 0.102068 0.964035 0.186492
H111  H     H_    0.147162 0.602066 0.035968 0.186493
H112  H     H_    0.852828 0.602093 0.964027 0.186491
C105  C     C_3   0.008199 0.477465 0.039453 -0.213762
C106  C     C_3   0.991770 0.477466 0.960563 -0.213784
C107  C     C_3   0.508227 0.977465 0.039439 -0.213783
C108  C     C_3   0.491805 0.977467 0.960546 -0.213766
H113  H     H_    0.056102 0.521714 0.049058 0.144397
H114  H     H_    0.943873 0.521718 0.950959 0.144372
H115  H     H_    0.556122 0.021724 0.049051 0.144384
H116  H     H_    0.443904 0.021723 0.950934 0.144413
H117  H     H_    0.971497 0.531231 0.067868 0.234126
H118  H     H_    0.028468 0.531241 0.932153 0.234049
H119  H     H_    0.471524 0.031234 0.067847 0.234046
H120  H     H_    0.528515 0.031228 0.932137 0.234126
H121  H     H_    0.613295 0.788113 0.051821 0.101945
H122  H     H_    0.386733 0.788208 0.948179 0.101962
H123  H     H_    0.113269 0.288207 0.051811 0.101951
H124  H     H_    0.886705 0.288124 0.948186 0.101939
H125  H     H_    0.600970 0.853554 0.931255 0.169246
H126  H     H_    0.399058 0.853547 0.068751 0.169283
H127  H     H_    0.100940 0.353548 0.931245 0.169298
H128  H     H_    0.899035 0.353543 0.068751 0.169275
C109  C     C_3   0.062565 0.276409 0.029368 -0.243471
C110  C     C_3   0.937418 0.276385 0.970637 -0.243443
C111  C     C_3   0.562582 0.776384 0.029364 -0.243427
C112  C     C_3   0.437438 0.776411 0.970626 -0.243454
C113  C     C_3   0.940618 0.295357 0.052509 -0.267510
C114  C     C_3   0.059359 0.295371 0.947496 -0.267522
C115  C     C_3   0.440639 0.795370 0.052499 -0.267532
C116  C     C_3   0.559387 0.795361 0.947491 -0.267516
C117  C     C_3   0.009811 0.351106 0.069641 0.044088
C118  C     C_3   0.990163 0.351109 0.930368 0.044089
C119  C     C_3   0.509835 0.851106 0.069632 0.044087
C120  C     C_3   0.490194 0.851109 0.930357 0.044084
H129  H     H_    0.934842 0.209888 0.080783 0.123213
H130  H     H_    0.065132 0.209899 0.919227 0.123225
H131  H     H_    0.434865 0.709897 0.080767 0.123220
H132  H     H_    0.565165 0.709895 0.919213 0.123208
H133  H     H_    0.953096 0.184293 0.959890 0.162624
H134  H     H_    0.046903 0.184317 0.040120 0.162640
H135  H     H_    0.453100 0.684319 0.959872 0.162645
H136  H     H_    0.546900 0.684291 0.040106 0.162619
Br1   Br    Br    0.870620 0.905447 0.922844 -0.532571
Br2   Br    Br    0.129361 0.905470 0.077135 -0.532555
Br3   Br    Br    0.370639 0.405473 0.922864 -0.532553
Br4   Br    Br    0.629378 0.405448 0.077153 -0.532561
N1    N     N_R   0.645324 0.061664 0.899545 0.031237
O53   O     O_R   0.632959 0.001046 0.841716 -0.359472
O54   O     O_R   0.615897 0.163709 0.906387 -0.346957
N2    N     N_R   0.354660 0.061606 0.100467 0.031275
O55   O     O_R   0.366982 0.000971 0.158285 -0.359478
O56   O     O_R   0.384085 0.163669 0.093658 -0.346899
N3    N     N_R   0.145340 0.561600 0.899536 0.031278
O57   O     O_R   0.133018 0.500963 0.841718 -0.359488
O58   O     O_R   0.115916 0.663662 0.906345 -0.346903
N4    N     N_R   0.854675 0.561661 0.100457 0.031261
O59   O     O_R   0.867051 0.501016 0.158270 -0.359501
O60   O     O_R   0.884101 0.663713 0.093629 -0.346931

loop_
_geom_bond_atom_site_label_1
_geom_bond_atom_site_label_2
_geom_bond_distance
_ccdc_geom_bond_type
O4    C12   1.296604 A    
O25   C21   1.297046 A    
C46   C50   1.524173 S    
C21   C118  1.490616 S    
C96   C100  1.531154 S    
C59   H55   1.106471 S    
Cr7   O51   2.063205 S    
C103  H107  1.086823 S    
C114  C118  1.532677 S    
C58   H54   1.106515 S    
C93   C97   1.531151 S    
H89   C97   1.107524 S    
C87   C103  1.552658 S    
O39   C19   1.321036 A    
C67   H67   1.110735 S    
O21   C9    1.307969 A    
C87   H99   1.105905 S    
C1    O9    1.296039 A    
C2    C43   1.477821 S    
O44   Cr12  2.136027 S    
C3    O11   1.295990 A    
C61   C66   1.533843 S    
C112  C115  1.548178 S    
C4    O12   1.296011 A    
C108  H120  1.091276 S    
C55   H35   1.093763 S    
C68   H68   1.110721 S    
H20   C36   1.090819 S    
H125  C116  1.099182 S    
C45   C49   1.524185 S    
O2    C10   1.296621 A    
C47   C55   1.567441 S    
C36   H44   1.106711 S    
C7    C47   1.474878 S    
H58   C64   1.090703 S    
H59   C61   1.090733 S    
O31   Cr3   2.004102 S    
H19   C35   1.090833 S    
O16   Cr8   1.986494 S    
C114  H130  1.111714 S    
C64   C67   1.533843 S    
C93   C101  1.578579 S    
C99   N3    1.471726 S    
C76   H80   1.116591 S    
C73   H73   1.078535 S    
O28   Cr4   2.108887 S    
O12   Cr8   2.126754 S    
O22   Cr10  2.014053 S    
C81   H109  1.106822 S    
O46   Cr10  1.978690 S    
C35   H43   1.106712 S    
C61   H70   1.107089 S    
O48   C24   1.308810 A    
C33   H41   1.106661 S    
C81   C89   1.571567 S    
C51   H47   1.111216 S    
H24   C52   1.107730 S    
C85   C89   1.517685 S    
H85   C81   1.085931 S    
C111  C119  1.547002 S    
C58   H50   1.083251 S    
C61   C69   1.571075 S    
C112  C120  1.546979 S    
C25   C29   1.529557 S    
Cr12  O52   2.061921 S    
C27   C31   1.529582 S    
C31   C47   1.550943 S    
C6    C46   1.474835 S    
C17   O41   1.284611 A    
C19   O43   1.284609 A    
C20   O44   1.284602 A    
C73   H77   1.116595 S    
C20   C96   1.500025 S    
Cr8   O52   2.063201 S    
C79   C95   1.567801 S    
O46   C22   1.308847 A    
C17   C93   1.500033 S    
C64   C72   1.571075 S    
C39   C43   1.524088 S    
C28   C32   1.529563 S    
C37   C41   1.524072 S    
C16   O36   1.289765 A    
C27   C43   1.550483 S    
C38   H26   1.110166 S    
C88   H100  1.106013 S    
C95   C99   1.531142 S    
O27   C23   1.297119 A    
C31   H11   1.088728 S    
H23   C51   1.107771 S    
C75   C79   1.500466 S    
O32   C16   1.319618 A    
H128  C113  1.099155 S    
O47   Cr11  1.978674 S    
C74   C78   1.500459 S    
C77   H81   1.058088 S    
C12   C71   1.486456 S    
C76   C92   1.553444 S    
C25   C41   1.550502 S    
H124  C110  1.086341 S    
C18   C94   1.500030 S    
O24   C12   1.307964 A    
C31   H15   1.107777 S    
C28   C44   1.550462 S    
C8    C48   1.474860 S    
C79   H83   1.058094 S    
C28   H4    1.085786 S    
C36   C44   1.572323 S    
C75   C91   1.553457 S    
N1    O54   1.302444 A    
C26   C30   1.529537 S    
C53   H33   1.093568 S    
C39   C55   1.533584 S    
C63   C68   1.533842 S    
C40   C56   1.533607 S    
O11   Cr7   2.126776 S    
C104  H104  1.080755 S    
O27   Cr3   2.108894 S    
C96   C104  1.578588 S    
O3    Cr3   2.128593 S    
C22   C117  1.490633 S    
C115  C119  1.532677 S    
H126  C115  1.099131 S    
C34   C50   1.537556 S    
Cr5   O49   2.063205 S    
C100  N4    1.471806 S    
C83   C99   1.560891 S    
C94   C98   1.531145 S    
C84   C100  1.560935 S    
C13   C92   1.497516 S    
C57   H53   1.106510 S    
C98   N2    1.471732 S    
C67   C71   1.524602 S    
C87   H95   1.096612 S    
O22   C10   1.307963 A    
C81   C97   1.560922 S    
C56   H36   1.093805 S    
C2    O10   1.296056 A    
C111  H136  1.109198 S    
C32   H16   1.107802 S    
N4    O59   1.302451 A    
C112  H135  1.109122 S    
C55   H39   1.107582 S    
O5    C1    1.302149 A    
O3    C11   1.296608 A    
O8    C4    1.302132 A    
C104  H108  1.086908 S    
Cr1   O49   2.061360 S    
C101  H105  1.086882 S    
H64   C65   1.107595 S    
H21   C49   1.107738 S    
H60   C62   1.090712 S    
C115  H131  1.111716 S    
C74   C90   1.553464 S    
C94   C102  1.578578 S    
C57   C69   1.549437 S    
O26   Cr2   2.108887 S    
Cr3   O51   2.061360 S    
C5    O17   1.299298 A    
H91   C99   1.107540 S    
O28   C24   1.297058 A    
O14   C6    1.302303 A    
C8    O20   1.299285 A    
N2    O55   1.302291 A    
C82   H110  1.106836 S    
C111  C116  1.548188 S    
C75   H79   1.116546 S    
C45   C53   1.567427 S    
O40   Cr8   2.006374 S    
C40   H32   1.107473 S    
C48   C56   1.567421 S    
O41   Cr9   2.136039 S    
C38   C54   1.533475 S    
C66   C70   1.524589 S    
O31   C15   1.319602 A    
C9    C70   1.486478 S    
C113  C117  1.532693 S    
C64   H71   1.107090 S    
O33   Cr5   2.108052 S    
C60   C72   1.549423 S    
C86   C102  1.552654 S    
O5    Cr1   1.990871 S    
O35   Cr7   2.108052 S    
O29   Cr1   2.004102 S    
H90   C98   1.107540 S    
C85   H97   1.106016 S    
C107  C108  1.507064 S    
C57   H49   1.083255 S    
C30   C46   1.550923 S    
C27   H7    1.107586 S    
C23   C120  1.490636 S    
Cr9   O49   2.061928 S    
C60   H52   1.083218 S    
C24   C119  1.490632 S    
C18   O42   1.284604 A    
Cr11  O51   2.061928 S    
O26   C22   1.297104 A    
O20   Cr12  2.099782 S    
C73   C77   1.500498 S    
C49   H45   1.111199 S    
C36   C52   1.537620 S    
C86   C90   1.517703 S    
C105  C117  1.541554 S    
C40   H28   1.110230 S    
C76   C80   1.500496 S    
C107  C119  1.541581 S    
C38   C42   1.524052 S    
C29   H13   1.107746 S    
C66   H66   1.110709 S    
C80   H84   1.058083 S    
C113  H129  1.111736 S    
C83   C91   1.571607 S    
O30   C14   1.319606 A    
C101  H101  1.080738 S    
C62   C65   1.533845 S    
C103  H103  1.080664 S    
C83   H111  1.106837 S    
C84   H112  1.106838 S    
O6    Cr2   1.990862 S    
H121  C111  1.086384 S    
H122  C112  1.086253 S    
C68   C72   1.524596 S    
H123  C109  1.086222 S    
C60   H56   1.106477 S    
O42   Cr10  2.136027 S    
O18   Cr10  2.099782 S    
C105  H113  1.081920 S    
C19   C95   1.500043 S    
O34   Cr6   2.108070 S    
C26   H2    1.085871 S    
C47   C51   1.524202 S    
O24   Cr12  2.014053 S    
O30   Cr2   2.004106 S    
C4    C41   1.477773 S    
C107  H115  1.081846 S    
O48   Cr12  1.978690 S    
C108  H116  1.081951 S    
O37   C17   1.321036 A    
C15   O35   1.289783 A    
C37   H29   1.107350 S    
Cr10  O50   2.061921 S    
C88   C92   1.517681 S    
O43   Cr11  2.136039 S    
C86   H94   1.096613 S    
O37   Cr5   2.006394 S    
N3    O57   1.302284 A    
O21   Cr9   2.014059 S    
C16   C89   1.497522 S    
O39   Cr7   2.006394 S    
C62   H69   1.107087 S    
O45   Cr9   1.978674 S    
C13   O33   1.289756 A    
C82   C90   1.571617 S    
O13   Cr5   1.986477 S    
C85   H93   1.096701 S    
O15   Cr7   1.986477 S    
H92   C100  1.107555 S    
C87   C91   1.517705 S    
H63   C66   1.107579 S    
C52   H48   1.111196 S    
O23   C11   1.307969 A    
C82   C98   1.560889 S    
H61   C68   1.107596 S    
C3    C42   1.477749 S    
C73   C89   1.553439 S    
C32   H12   1.088728 S    
C62   C70   1.571074 S    
C1    C44   1.477792 S    
C54   H38   1.107378 S    
C35   C43   1.572324 S    
C33   C41   1.572334 S    
C34   H42   1.106659 S    
O6    C2    1.302153 A    
O1    Cr1   2.128593 S    
C46   C54   1.567404 S    
O19   Cr11  2.099765 S    
C5    C45   1.474854 S    
O29   C13   1.319622 A    
H57   C63   1.090728 S    
C65   H65   1.110722 S    
C109  C114  1.548159 S    
C102  H106  1.086820 S    
O45   C21   1.308798 A    
O47   C23   1.308866 A    
N1    O53   1.302498 A    
O13   C5    1.302326 A    
C95   C103  1.578574 S    
C26   C42   1.550484 S    
O40   C20   1.321028 A    
C80   Br4   1.958715 S    
C6    O18   1.299254 A    
C84   C92   1.571560 S    
O36   Cr8   2.108070 S    
C53   H37   1.107359 S    
C15   C90   1.497521 S    
O38   Cr6   2.006374 S    
C75   H75   1.078380 S    
C59   C60   1.543102 S    
C56   H40   1.107640 S    
C57   C58   1.543110 S    
O15   C7    1.302358 A    
O8    Cr4   1.990862 S    
C48   C52   1.524196 S    
C108  C120  1.541550 S    
O1    C9    1.296623 A    
O7    C3    1.302132 A    
C110  C113  1.548166 S    
C63   C71   1.571079 S    
C14   C91   1.497526 S    
N4    O60   1.302489 A    
C78   H82   1.058089 S    
C109  H134  1.109115 S    
O23   Cr11  2.014059 S    
H87   C83   1.085838 S    
C59   C71   1.549420 S    
C116  H132  1.111748 S    
C78   Br2   1.958732 S    
C29   C45   1.550941 S    
C76   H76   1.078523 S    
C79   Br3   1.958736 S    
C32   C48   1.550922 S    
C7    O19   1.299330 A    
Cr4   O52   2.061364 S    
O2    Cr2   2.128599 S    
O14   Cr6   1.986494 S    
C80   C96   1.567780 S    
Cr6   O50   2.063201 S    
C50   H46   1.111172 S    
C109  C117  1.546970 S    
C25   H1    1.085944 S    
C107  H119  1.091224 S    
C39   H31   1.107428 S    
C77   C93   1.567780 S    
C106  C118  1.541571 S    
C106  H118  1.091209 S    
C11   C72   1.486466 S    
C29   H9    1.088712 S    
O9    Cr5   2.126776 S    
C110  H133  1.109185 S    
O16   C8    1.302333 A    
H62   C67   1.107611 S    
H22   C50   1.107692 S    
N2    O56   1.302542 A    
C102  H102  1.080652 S    
O7    Cr3   1.990871 S    
C105  C106  1.507044 S    
C74   H74   1.078373 S    
C59   H51   1.083224 S    
C25   H5    1.107653 S    
C88   C104  1.552623 S    
C110  C118  1.546994 S    
C97   N1    1.471766 S    
H17   C33   1.090806 S    
Cr2   O50   2.061364 S    
N3    O58   1.302535 A    
C78   C94   1.567795 S    
C37   C53   1.533456 S    
C40   C44   1.524068 S    
C35   C51   1.537622 S    
C106  H114  1.081829 S    
C86   H98   1.105908 S    
C33   C49   1.537557 S    
H86   C82   1.085829 S    
C58   C70   1.549441 S    
C28   H8    1.107526 S    
O38   C18   1.321028 A    
C37   H25   1.110112 S    
O25   Cr1   2.108894 S    
C38   H30   1.107386 S    
C88   H96   1.096702 S    
C77   Br1   1.958717 S    
O17   Cr9   2.099765 S    
H127  C114  1.099126 S    
C14   O34   1.289785 A    
C74   H78   1.116547 S    
C10   C69   1.486473 S    
C65   C69   1.524596 S    
C34   C42   1.572331 S    
C30   H10   1.088714 S    
C85   C101  1.552626 S    
C63   H72   1.107093 S    
O10   Cr6   2.126754 S    
C39   H27   1.110173 S    
O4    Cr4   2.128599 S    
C30   H14   1.107772 S    
H18   C34   1.090774 S    
C116  C120  1.532703 S    
C27   H3    1.085852 S    
C54   H34   1.093586 S    
H88   C84   1.085932 S    
O32   Cr4   2.004106 S    
C26   H6    1.107586 S    
C105  H117  1.091258 S    
