data_mof_unit_1986.cif
_audit_creation_date              2012-12-11T16:27:45-0500
_audit_creation_method            fapswitch 2.2
_symmetry_space_group_name_H-M    P1
_symmetry_Int_Tables_number       1
_space_group_crystal_system       triclinic
_cell_length_a                    30.26173
_cell_length_b                    22.605805
_cell_length_c                    18.009478
_cell_angle_alpha                 90.000042
_cell_angle_beta                  122.493282
_cell_angle_gamma                 90.000277
_cell_volume                      10391.4578998

loop_
_atom_site_label
_atom_site_type_symbol
_atom_type_description
_atom_site_fract_x
_atom_site_fract_y
_atom_site_fract_z
_atom_type_partial_charge
C1    C     C_R   0.534087 0.606702 0.710763 0.639634
C2    C     C_R   0.639198 0.288595 0.422384 -0.343909
C3    C     C_R   0.757299 0.728221 0.882935 -0.238645
C4    C     C_R   0.281170 0.866295 0.054973 -0.226777
C5    C     C_R   0.742694 0.228191 0.117024 -0.238638
C6    C     C_R   0.718815 0.866310 0.945038 -0.226773
C7    C     C_R   0.257302 0.228210 0.882950 -0.238643
C8    C     C_R   0.835848 0.361965 0.107832 -0.186041
C9    C     C_R   0.188639 0.731440 0.067564 -0.181367
C10   C     C_R   0.164148 0.361970 0.892170 -0.186041
C11   C     C_R   0.811348 0.731498 0.932359 -0.181373
C12   C     C_R   0.335840 0.861964 0.107848 -0.186038
C13   C     C_R   0.679994 0.644232 0.417931 -0.353199
C14   C     C_R   0.688645 0.231466 0.067598 -0.181369
C15   C     C_R   0.664145 0.861972 0.892173 -0.186034
C16   C     C_R   0.311351 0.231487 0.932373 -0.181373
C17   C     C_R   0.595254 0.580425 0.424896 -0.045028
C18   C     C_R   0.421967 0.392598 0.574570 -0.162404
C19   C     C_R   0.404747 0.580428 0.575105 -0.045085
C20   C     C_R   0.578034 0.392600 0.425427 -0.162336
C21   C     C_R   0.095254 0.080426 0.424896 -0.045027
C22   C     C_R   0.921964 0.892601 0.574571 -0.162355
C23   C     C_R   0.904746 0.080427 0.575104 -0.045042
C24   C     C_R   0.360799 0.288595 0.577611 -0.343904
C25   C     C_R   0.078034 0.892601 0.425427 -0.162336
C26   C     C_R   0.394022 0.608476 0.295383 -0.248738
C27   C     C_R   0.614446 0.407718 0.734281 -0.278106
C28   C     C_R   0.605975 0.608480 0.704605 -0.248738
C29   C     C_R   0.385553 0.407720 0.265715 -0.278107
C30   C     C_R   0.894023 0.108477 0.295386 -0.248739
C31   C     C_R   0.114446 0.907717 0.734281 -0.278108
C32   C     C_R   0.105977 0.108478 0.704612 -0.248737
C33   C     C_R   0.885553 0.907720 0.265715 -0.278103
C34   C     C_R   0.578507 0.640303 0.732982 -0.034299
C35   C     C_R   0.820008 0.144243 0.582064 -0.353192
C36   C     C_R   0.409445 0.385642 0.223520 -0.014237
C37   C     C_R   0.421490 0.640296 0.267004 -0.034297
C38   C     C_R   0.590553 0.385636 0.776473 -0.014216
C39   C     C_R   0.078509 0.140300 0.732990 -0.034310
C40   C     C_R   0.909445 0.885641 0.223521 -0.014238
C41   C     C_R   0.921491 0.140298 0.267008 -0.034304
C42   C     C_R   0.090552 0.885636 0.776471 -0.014232
C43   C     C_R   0.644188 0.594294 0.495817 0.047731
C44   C     C_R   0.384597 0.360978 0.502232 0.075492
C45   C     C_R   0.355814 0.594298 0.504184 0.047746
C46   C     C_R   0.139197 0.788594 0.422384 -0.343905
C47   C     C_R   0.615404 0.360980 0.497766 0.075460
C48   C     C_R   0.144188 0.094295 0.495817 0.047732
C49   C     C_R   0.884594 0.860980 0.502233 0.075470
C50   C     C_R   0.855813 0.094297 0.504183 0.047734
C51   C     C_R   0.115404 0.860980 0.497766 0.075460
C52   C     C_R   0.217765 0.617560 0.445576 -0.143217
C53   C     C_R   0.676288 0.210156 0.563676 -0.139903
C54   C     C_R   0.782238 0.617559 0.554430 -0.143221
C55   C     C_R   0.323717 0.210150 0.436327 -0.139888
C56   C     C_R   0.717764 0.117560 0.445574 -0.143218
C57   C     C_R   0.179996 0.144229 0.417929 -0.353200
C58   C     C_R   0.176288 0.710156 0.563677 -0.139905
C59   C     C_R   0.282239 0.117559 0.554433 -0.143225
C60   C     C_R   0.823716 0.710153 0.436327 -0.139901
C61   C     C_R   0.259953 0.595134 0.443730 -0.183856
C62   C     C_R   0.652629 0.262844 0.563788 -0.176737
C63   C     C_R   0.740050 0.595132 0.556276 -0.183848
C64   C     C_R   0.347374 0.262840 0.436213 -0.176753
C65   C     C_R   0.759952 0.095133 0.443728 -0.183854
C66   C     C_R   0.152630 0.762845 0.563789 -0.176737
C67   C     C_R   0.240051 0.095133 0.556279 -0.183852
C68   C     C_R   0.860796 0.788598 0.577611 -0.343919
C69   C     C_R   0.847373 0.762843 0.436214 -0.176742
C70   C     C_R   0.311152 0.610611 0.510103 0.071839
C71   C     C_R   0.635892 0.303241 0.494720 0.082532
C72   C     C_R   0.688851 0.610604 0.489898 0.071841
C73   C     C_R   0.364108 0.303239 0.505277 0.082540
C74   C     C_R   0.811151 0.110610 0.510102 0.071838
C75   C     C_R   0.135892 0.803241 0.494720 0.082530
C76   C     C_R   0.188851 0.110604 0.489898 0.071844
C77   C     C_R   0.864106 0.803241 0.505278 0.082542
C78   C     C_3   0.524014 0.625377 0.826343 -0.297718
C79   C     C_R   0.278078 0.669034 0.582590 0.622882
C80   C     C_3   0.501248 0.472875 0.222600 -0.290487
C81   C     C_3   0.476002 0.625397 0.173673 -0.297650
C82   C     C_3   0.498703 0.472857 0.777331 -0.290485
C83   C     C_3   0.024004 0.125389 0.826333 -0.297634
C84   C     C_3   0.001245 0.972875 0.222594 -0.290474
C85   C     C_3   0.975999 0.125393 0.173670 -0.297641
C86   C     C_3   0.998739 0.972869 0.777380 -0.290478
C87   C     C_3   0.499700 0.288175 0.830621 -0.130512
C88   C     C_3   0.521944 0.774288 0.281411 -0.201144
C89   C     C_3   0.500296 0.288197 0.169352 -0.130506
C90   C     C_R   0.664630 0.237050 0.423190 0.620937
C91   C     C_3   0.478057 0.774237 0.718694 -0.201048
C92   C     C_3   0.999695 0.788176 0.830607 -0.130524
C93   C     C_3   0.021948 0.274283 0.281397 -0.201151
C94   C     C_3   0.000294 0.788199 0.169343 -0.130502
C95   C     C_3   0.978050 0.274279 0.718614 -0.201130
C96   C     C_3   0.803248 0.262014 0.638508 -0.263590
C97   C     C_3   0.210965 0.760205 0.360841 -0.262784
C98   C     C_3   0.196741 0.261986 0.361443 -0.263548
C99   C     C_3   0.789024 0.760205 0.639145 -0.262788
C100  C     C_3   0.303247 0.762017 0.638506 -0.263603
C101  C     C_R   0.721925 0.669021 0.417406 0.622886
C102  C     C_3   0.710965 0.260205 0.360840 -0.262792
C103  C     C_3   0.696746 0.761996 0.361466 -0.263582
C104  C     C_3   0.289029 0.260201 0.639151 -0.262793
C105  C     C_R   0.458564 0.410684 0.264427 0.629181
C106  C     C_R   0.335369 0.237049 0.576807 0.620933
C107  C     C_R   0.778077 0.169033 0.582589 0.622881
C108  C     C_R   0.164629 0.737049 0.423191 0.620934
C109  C     C_R   0.221927 0.169016 0.417404 0.622883
C110  C     C_R   0.835366 0.737052 0.576806 0.620934
C111  C     C_R   0.226486 0.657222 0.512027 -0.045126
C112  C     C_R   0.684907 0.198440 0.495982 -0.045144
C113  C     C_R   0.773518 0.657216 0.487975 -0.045127
C114  C     C_R   0.315095 0.198436 0.504019 -0.045133
C115  C     C_R   0.726485 0.157221 0.512025 -0.045125
C116  C     C_R   0.465912 0.606698 0.289230 0.639624
C117  C     C_R   0.184908 0.698440 0.495983 -0.045145
C118  C     C_R   0.273519 0.157213 0.487976 -0.045131
C119  C     C_R   0.815093 0.698439 0.504018 -0.045139
C120  C     C_R   0.403809 0.698410 0.224082 -0.004742
C121  C     C_R   0.614431 0.349361 0.856412 0.009535
C122  C     C_R   0.596186 0.698421 0.775897 -0.004740
C123  C     C_R   0.385566 0.349371 0.143575 0.009526
C124  C     C_R   0.903811 0.198413 0.224089 -0.004733
C125  C     C_R   0.114427 0.849357 0.856407 0.009537
C126  C     C_R   0.096188 0.198417 0.775906 -0.004728
C127  C     C_R   0.541436 0.410681 0.735572 0.629171
C128  C     C_R   0.885565 0.849372 0.143573 0.009523
C129  C     C_R   0.414310 0.802104 0.200866 -0.435651
C130  C     C_R   0.609917 0.269130 0.941160 -0.433911
C131  C     C_R   0.585679 0.802106 0.799152 -0.435625
C132  C     C_R   0.390079 0.269148 0.058814 -0.433906
C133  C     C_R   0.914315 0.302103 0.200853 -0.435662
C134  C     C_R   0.109911 0.769114 0.941137 -0.433898
C135  C     C_R   0.085681 0.302104 0.799150 -0.435666
C136  C     C_R   0.890077 0.769154 0.058803 -0.433908
C137  C     C_R   0.437382 0.746803 0.240645 0.646180
C138  C     C_R   0.034088 0.106700 0.710767 0.639628
C139  C     C_R   0.584578 0.306270 0.867336 0.664183
C140  C     C_R   0.562610 0.746805 0.759364 0.646168
C141  C     C_R   0.415419 0.306284 0.132643 0.664176
C142  C     C_R   0.937386 0.246802 0.240639 0.646177
C143  C     C_R   0.084573 0.806263 0.867322 0.664163
C144  C     C_R   0.062612 0.246803 0.759362 0.646170
C145  C     C_R   0.915417 0.806287 0.132637 0.664178
C146  C     C_R   0.349874 0.705924 0.172823 -0.358626
C147  C     C_R   0.667679 0.356692 0.919970 -0.350924
C148  C     C_R   0.650121 0.705947 0.827131 -0.358603
C149  C     C_R   0.958564 0.910683 0.264428 0.629181
C150  C     C_R   0.332318 0.356702 0.080020 -0.350927
C151  C     C_R   0.849876 0.205934 0.172842 -0.358615
C152  C     C_R   0.167675 0.856687 0.919968 -0.350928
C153  C     C_R   0.150123 0.205941 0.827145 -0.358607
C154  C     C_R   0.832316 0.856704 0.080020 -0.350924
C155  C     C_R   0.327459 0.761347 0.144049 0.098574
C156  C     C_R   0.693573 0.318502 0.992371 0.089988
C157  C     C_R   0.672531 0.761372 0.855918 0.098564
C158  C     C_R   0.306423 0.318516 0.007614 0.089988
C159  C     C_R   0.827464 0.261357 0.144062 0.098567
C160  C     C_R   0.965912 0.106699 0.289232 0.639627
C161  C     C_R   0.193567 0.818491 0.992361 0.089988
C162  C     C_R   0.172533 0.261366 0.855927 0.098562
C163  C     C_R   0.806421 0.818521 0.007610 0.089987
C164  C     C_R   0.359463 0.808880 0.151043 0.148131
C165  C     C_R   0.663826 0.273782 0.001479 0.144624
C166  C     C_R   0.640524 0.808892 0.848958 0.148115
C167  C     C_R   0.336170 0.273800 0.998498 0.144624
C168  C     C_R   0.859469 0.308883 0.151038 0.148136
C169  C     C_R   0.163820 0.773764 0.001457 0.144616
C170  C     C_R   0.140527 0.308888 0.848959 0.148140
C171  C     C_R   0.041434 0.910680 0.735569 0.629189
C172  C     C_R   0.836167 0.773807 0.998489 0.144626
C173  C     C_R   0.273166 0.769118 0.104099 0.090303
C174  C     C_R   0.748927 0.319152 0.050365 0.084957
C175  C     C_R   0.726822 0.769154 0.895857 0.090311
C176  C     C_R   0.251069 0.319163 0.949623 0.084958
C177  C     C_R   0.773171 0.269133 0.104117 0.090305
C178  C     C_R   0.248920 0.819141 0.050360 0.084956
C179  C     C_R   0.226825 0.269147 0.895867 0.090308
C180  C     C_R   0.751067 0.819169 0.949620 0.084958
C181  C     C_R   0.644506 0.579993 0.570624 -0.128643
C182  C     C_R   0.320009 0.644245 0.582065 -0.353187
C183  C     C_R   0.372146 0.393003 0.427777 -0.117042
C184  C     C_R   0.355495 0.579995 0.429375 -0.128623
C185  C     C_R   0.627854 0.393005 0.572222 -0.117043
C186  C     C_R   0.144506 0.079994 0.570625 -0.128640
C187  C     C_R   0.872145 0.893004 0.427777 -0.117048
C188  C     C_R   0.855495 0.079995 0.429375 -0.128635
C189  C     C_R   0.127854 0.893004 0.572222 -0.117042
C190  C     C_R   0.781177 0.366299 0.054961 -0.226773
C191  C     C_R   0.242688 0.728167 0.116991 -0.238628
C192  C     C_R   0.218818 0.366307 0.945036 -0.226776
H1    H     H_    0.688952 0.389943 0.908584 0.150690
H2    H     H_    0.260238 0.693443 0.165833 0.132567
H3    H     H_    0.308135 0.180886 0.380050 0.161751
H4    H     H_    0.678303 0.108322 0.391069 0.158449
H5    H     H_    0.191875 0.680895 0.619959 0.161743
H6    H     H_    0.321699 0.108326 0.608944 0.158457
H7    H     H_    0.808133 0.680889 0.380050 0.161746
H8    H     H_    0.252432 0.567482 0.389055 0.120801
H9    H     H_    0.648790 0.272734 0.618906 0.133029
H10   H     H_    0.747571 0.567484 0.610954 0.120800
H11   H     H_    0.351216 0.272729 0.381097 0.133030
H12   H     H_    0.752431 0.067482 0.389052 0.120801
H13   H     H_    0.234998 0.407613 0.979116 0.131692
H14   H     H_    0.148790 0.772735 0.618908 0.133029
H15   H     H_    0.247571 0.067488 0.610959 0.120801
H16   H     H_    0.851215 0.772731 0.381098 0.133030
H17   H     H_    0.359517 0.655048 0.635042 0.160675
H18   H     H_    0.625240 0.318815 0.367592 0.138041
H19   H     H_    0.640486 0.655031 0.364949 0.160685
H20   H     H_    0.374755 0.318817 0.632401 0.138040
H21   H     H_    0.859517 0.155045 0.635042 0.160689
H22   H     H_    0.125239 0.818814 0.367591 0.138043
H23   H     H_    0.140488 0.155026 0.364945 0.160677
H24   H     H_    0.739747 0.693507 0.834075 0.132573
H25   H     H_    0.874750 0.818820 0.632400 0.138039
H26   H     H_    0.772557 0.282221 0.575009 0.128076
H27   H     H_    0.841120 0.259532 0.642344 0.126743
H28   H     H_    0.809018 0.291823 0.691944 0.175462
H29   H     H_    0.248789 0.751659 0.423765 0.131739
H30   H     H_    0.200984 0.808052 0.354341 0.134896
H31   H     H_    0.216435 0.748491 0.306461 0.182334
H32   H     H_    0.227399 0.282187 0.424975 0.128018
H33   H     H_    0.158839 0.259499 0.357506 0.126775
H34   H     H_    0.191016 0.291800 0.308043 0.175459
H35   H     H_    0.264988 0.907605 0.020908 0.131698
H36   H     H_    0.751202 0.751656 0.576220 0.131736
H37   H     H_    0.799003 0.808053 0.645643 0.134900
H38   H     H_    0.783552 0.748492 0.693523 0.182329
H39   H     H_    0.272553 0.782224 0.575010 0.128088
H40   H     H_    0.341116 0.759535 0.642333 0.126741
H41   H     H_    0.309021 0.791825 0.691945 0.175463
H42   H     H_    0.748789 0.251660 0.423764 0.131737
H43   H     H_    0.700983 0.308052 0.354339 0.134898
H44   H     H_    0.716435 0.248491 0.306460 0.182332
H45   H     H_    0.727427 0.782207 0.424970 0.128062
H46   H     H_    0.760245 0.193473 0.165877 0.132570
H47   H     H_    0.658867 0.759510 0.357604 0.126753
H48   H     H_    0.690987 0.791804 0.308036 0.175462
H49   H     H_    0.251205 0.251645 0.576231 0.131745
H50   H     H_    0.299004 0.308049 0.645638 0.134896
H51   H     H_    0.283563 0.248491 0.693537 0.182329
H52   H     H_    0.859550 0.399284 0.111990 0.130168
H53   H     H_    0.166283 0.698287 0.077201 0.133483
H54   H     H_    0.140445 0.399285 0.888018 0.130166
H55   H     H_    0.833703 0.698356 0.922700 0.133492
H56   H     H_    0.359541 0.899288 0.112021 0.130169
H57   H     H_    0.734995 0.907615 0.979123 0.131692
H58   H     H_    0.666290 0.198319 0.077246 0.133487
H59   H     H_    0.640441 0.899286 0.888027 0.130166
H60   H     H_    0.333706 0.198343 0.922719 0.133490
H61   H     H_    0.239751 0.193494 0.834094 0.132572
H62   H     H_    0.358026 0.621151 0.290052 0.144433
H63   H     H_    0.655500 0.404626 0.757386 0.135613
H64   H     H_    0.641968 0.621157 0.709928 0.144430
H65   H     H_    0.325094 0.667297 0.155335 0.156135
H66   H     H_    0.344498 0.404630 0.242607 0.135613
H67   H     H_    0.858029 0.121153 0.290059 0.144431
H68   H     H_    0.155500 0.904625 0.757388 0.135617
H69   H     H_    0.141970 0.121155 0.709936 0.144429
H70   H     H_    0.844498 0.904630 0.242608 0.135612
H71   H     H_    0.533270 0.672639 0.843983 0.170903
H72   H     H_    0.560342 0.598384 0.864969 0.110660
H73   H     H_    0.496946 0.611539 0.846850 0.166526
H74   H     H_    0.532152 0.488631 0.288805 0.156903
H75   H     H_    0.466224 0.502001 0.192492 0.144571
H76   H     H_    0.311045 0.389949 0.091411 0.150689
H77   H     H_    0.517509 0.474999 0.180238 0.174016
H78   H     H_    0.466774 0.672667 0.156061 0.170939
H79   H     H_    0.439660 0.598430 0.135024 0.110637
H80   H     H_    0.503067 0.611543 0.153166 0.166503
H81   H     H_    0.533698 0.502025 0.807361 0.144628
H82   H     H_    0.482465 0.474986 0.819725 0.174014
H83   H     H_    0.467770 0.488559 0.711112 0.156855
H84   H     H_    0.033238 0.172657 0.843956 0.170937
H85   H     H_    0.060343 0.098417 0.864973 0.110631
H86   H     H_    0.996939 0.111535 0.846841 0.166500
H87   H     H_    0.674907 0.667327 0.844602 0.156133
H88   H     H_    0.032155 0.988630 0.288796 0.156906
H89   H     H_    0.966221 0.002002 0.192503 0.144559
H90   H     H_    0.017493 0.975001 0.180215 0.174011
H91   H     H_    0.966771 0.172662 0.156054 0.170940
H92   H     H_    0.939657 0.098425 0.135026 0.110632
H93   H     H_    0.003063 0.111536 0.153162 0.166497
H94   H     H_    0.967819 0.988605 0.711173 0.156889
H95   H     H_    0.033753 0.002009 0.807449 0.144579
H96   H     H_    0.982496 0.974996 0.819769 0.174014
H97   H     H_    0.509261 0.318857 0.885775 0.125446
H98   H     H_    0.188948 0.889941 0.908590 0.150692
H99   H     H_    0.500359 0.241481 0.850296 0.118061
H100  H     H_    0.459016 0.298083 0.776297 0.170508
H101  H     H_    0.525472 0.819901 0.306961 0.131947
H102  H     H_    0.506913 0.774714 0.209784 0.107339
H103  H     H_    0.561947 0.755166 0.315828 0.169884
H104  H     H_    0.490737 0.318887 0.114207 0.125447
H105  H     H_    0.499637 0.241506 0.149665 0.118057
H106  H     H_    0.540982 0.298102 0.223679 0.170505
H107  H     H_    0.474502 0.819865 0.693179 0.131910
H108  H     H_    0.493113 0.774628 0.790333 0.107310
H109  H     H_    0.825093 0.167309 0.155362 0.156134
H110  H     H_    0.438062 0.755094 0.684300 0.169898
H111  H     H_    0.009256 0.818860 0.885759 0.125453
H112  H     H_    0.000352 0.741483 0.850284 0.118061
H113  H     H_    0.959010 0.798084 0.776283 0.170507
H114  H     H_    0.025477 0.319896 0.306947 0.131947
H115  H     H_    0.006916 0.274708 0.209768 0.107342
H116  H     H_    0.061950 0.255159 0.315811 0.169878
H117  H     H_    0.990733 0.818889 0.114198 0.125443
H118  H     H_    0.999635 0.741508 0.149655 0.118057
H119  H     H_    0.040979 0.798104 0.223669 0.170505
H120  H     H_    0.811043 0.889950 0.091415 0.150689
H121  H     H_    0.974519 0.319891 0.693062 0.131939
H122  H     H_    0.993085 0.274704 0.790243 0.107346
H123  H     H_    0.938049 0.255153 0.684203 0.169884
H124  H     H_    0.438398 0.840264 0.210417 0.145049
H125  H     H_    0.588488 0.233511 0.948160 0.146855
H126  H     H_    0.561586 0.840257 0.789622 0.145058
H127  H     H_    0.411508 0.233533 0.051807 0.146856
H128  H     H_    0.938405 0.340259 0.210391 0.145047
H129  H     H_    0.088482 0.733492 0.948127 0.146858
H130  H     H_    0.061591 0.340257 0.789618 0.145045
H131  H     H_    0.174908 0.167320 0.844620 0.156133
H132  H     H_    0.911505 0.733541 0.051793 0.146855
H133  H     H_    0.678637 0.576704 0.636747 0.088562
H134  H     H_    0.343072 0.381547 0.360649 0.096687
H135  H     H_    0.321364 0.576708 0.363253 0.088559
H136  H     H_    0.656929 0.381549 0.639349 0.096689
H137  H     H_    0.178637 0.076705 0.636747 0.088561
H138  H     H_    0.843071 0.881548 0.360649 0.096691
H139  H     H_    0.821364 0.076707 0.363252 0.088562
H140  H     H_    0.156929 0.881549 0.639349 0.096690
H141  H     H_    0.586115 0.574666 0.358596 0.137090
H142  H     H_    0.764996 0.407606 0.020885 0.131695
H143  H     H_    0.439486 0.379747 0.642013 0.177120
H144  H     H_    0.413888 0.574672 0.641406 0.137106
H145  H     H_    0.560516 0.379752 0.357984 0.177120
H146  H     H_    0.086114 0.074666 0.358596 0.137088
H147  H     H_    0.939482 0.879752 0.642014 0.177119
H148  H     H_    0.913886 0.074669 0.641405 0.137097
H149  H     H_    0.060516 0.879752 0.357984 0.177119
H150  H     H_    0.178304 0.608322 0.391072 0.158449
H151  H     H_    0.691874 0.180894 0.619957 0.161743
H152  H     H_    0.821699 0.608325 0.608939 0.158448
N1    N     N_R   0.532910 0.558440 0.665240 -0.120874
N2    N     N_R   0.402970 0.441090 0.454460 -0.033906
N3    N     N_R   0.402970 0.558910 0.454460 -0.034079
N4    N     N_R   0.597030 0.441090 0.545540 -0.033910
N5    N     N_R   0.097030 0.058910 0.545540 -0.034081
N6    N     N_R   0.902970 0.941090 0.454460 -0.033909
N7    N     N_R   0.902970 0.058910 0.454460 -0.034080
N8    N     N_R   0.097030 0.941090 0.545540 -0.033911
N9    N     N_R   0.566200 0.559270 0.454460 -0.050487
N10   N     N_R   0.433800 0.440730 0.545540 -0.053742
N11   N     N_R   0.433800 0.559270 0.545540 -0.050487
N12   N     N_R   0.467090 0.441560 0.334760 -0.115821
N13   N     N_R   0.566200 0.440730 0.454460 -0.053735
N14   N     N_R   0.066200 0.059270 0.454460 -0.050488
N15   N     N_R   0.933800 0.940730 0.545540 -0.053738
N16   N     N_R   0.933800 0.059270 0.545540 -0.050487
N17   N     N_R   0.066200 0.940730 0.454460 -0.053734
N18   N     N_R   0.421050 0.559750 0.334770 -0.068012
N19   N     N_R   0.578950 0.440250 0.665230 -0.059622
N20   N     N_R   0.578950 0.559750 0.665230 -0.068014
N21   N     N_R   0.421050 0.440250 0.334770 -0.059624
N22   N     N_R   0.921050 0.059750 0.334770 -0.068012
N23   N     N_R   0.467090 0.558440 0.334760 -0.120873
N24   N     N_R   0.078950 0.940250 0.665230 -0.059624
N25   N     N_R   0.078950 0.059750 0.665230 -0.068012
N26   N     N_R   0.921050 0.940250 0.334770 -0.059625
N27   N     N_R   0.532910 0.441560 0.665240 -0.115821
N28   N     N_R   0.032910 0.058440 0.665240 -0.120874
N29   N     N_R   0.967090 0.941560 0.334760 -0.115820
N30   N     N_R   0.967090 0.058440 0.334760 -0.120875
N31   N     N_R   0.032910 0.941560 0.665240 -0.115821
N32   N     N_R   0.597030 0.558910 0.545540 -0.034080
Ni1   Ni    Ni4+2 0.483090 0.500000 0.604440 0.215870
Ni2   Ni    Ni4+2 0.516910 0.500000 0.395560 0.215894
Ni3   Ni    Ni4+2 0.983090 1.000000 0.604440 0.215884
Ni4   Ni    Ni4+2 0.016910 0.000000 0.395560 0.215892
Ni5   Ni    Ni4+2 0.586780 0.500000 0.604440 0.197739
Ni6   Ni    Ni4+2 0.413220 0.500000 0.395560 0.197735
Ni7   Ni    Ni4+2 0.086780 1.000000 0.604440 0.197738
Ni8   Ni    Ni4+2 0.913220 0.000000 0.395560 0.197735
O1    O     O_3   0.498249 0.617471 0.734326 -0.628549
O2    O     O_3   0.490907 0.739100 0.300858 -0.593608
O3    O     O_3   0.466884 0.295832 0.201016 -0.618699
O4    O     O_3   0.509084 0.739099 0.699168 -0.593606
O5    O     O_3   0.033108 0.795817 0.798945 -0.618708
O6    O     O_3   0.990911 0.239096 0.300845 -0.593603
O7    O     O_3   0.966882 0.795834 0.201008 -0.618698
O8    O     O_3   0.009086 0.239093 0.699162 -0.593603
O9    O     O_3   0.787577 0.206028 0.650949 -0.620202
O10   O     O_3   0.170367 0.724838 0.353452 -0.627221
O11   O     O_3   0.212431 0.206002 0.349036 -0.620213
O12   O     O_3   0.487650 0.413958 0.225805 -0.637988
O13   O     O_3   0.829626 0.724842 0.646543 -0.627228
O14   O     O_3   0.287578 0.706030 0.650949 -0.620204
O15   O     O_3   0.670367 0.224839 0.353452 -0.627223
O16   O     O_3   0.712427 0.706011 0.349042 -0.620204
O17   O     O_3   0.329632 0.224839 0.646546 -0.627230
O18   O     O_3   0.501757 0.617471 0.265684 -0.628562
O19   O     O_3   0.512353 0.413950 0.774200 -0.637979
O20   O     O_3   0.998245 0.117471 0.734320 -0.628547
O21   O     O_3   0.987649 0.913958 0.225805 -0.637987
O22   O     O_3   0.001756 0.117472 0.265683 -0.628553
O23   O     O_3   0.012351 0.913954 0.774195 -0.637992
O24   O     O_3   0.533114 0.295820 0.798960 -0.618703

loop_
_geom_bond_atom_site_label_1
_geom_bond_atom_site_label_2
_ccdc_geom_bond_type
C102  H44   S    
N3    Ni6   S    
C80   H75   S    
C101  C113  A    
C9    C169  A    
C27   N19   A    
C17   H141  S    
C16   H60   S    
C89   H105  S    
C58   H5    S    
C120  C146  A    
C21   N14   A    
C57   C76   A    
C31   C42   A    
N29   Ni4   S    
C87   O24   S    
C128  C145  A    
C54   C63   A    
C8    H52   S    
C40   C128  S    
C188  N7    A    
C2    C90   A    
C131  C140  A    
C8    C168  A    
C134  C143  A    
C63   H10   S    
C176  C179  A    
C57   C109  A    
C186  H137  S    
C8    C190  A    
C134  C169  A    
C121  C147  A    
C15   C166  A    
C10   H54   S    
C122  C148  A    
N20   Ni5   S    
C4    C12   A    
C99   H36   S    
C153  H131  S    
C128  C154  A    
C98   O11   S    
N25   N28   A    
C22   H147  S    
C93   H115  S    
C189  N8    A    
C86   O23   S    
C92   H112  S    
C116  O18   S    
C86   H94   S    
C132  H127  S    
N14   Ni4   S    
C109  C118  A    
C183  N2    A    
C5    H46   S    
C83   O20   S    
C171  O23   S    
C21   H146  S    
C81   O18   S    
C96   H28   S    
C33   H70   S    
C173  C191  A    
C97   H31   S    
C129  C164  A    
C17   C43   A    
C62   H9    S    
N9    Ni2   S    
C18   C44   A    
C103  O16   S    
C123  C141  A    
C87   H100  S    
C68   C110  A    
C163  C172  A    
C174  C177  A    
N19   N27   A    
C106  O17   S    
N4    N13   A    
C30   N22   A    
C22   C49   A    
C15   H59   S    
N6    N15   A    
C102  H42   S    
C59   H6    S    
C189  H140  S    
N2    N10   A    
C2    C71   A    
C129  H124  S    
C68   C77   A    
C69   H16   S    
C82   H82   S    
C78   H72   S    
C152  H98   S    
C90   O15   S    
C83   H85   S    
N5    N14   A    
C79   C182  A    
N25   Ni7   S    
C13   C72   A    
N6    Ni8   S    
C32   N25   A    
C18   N10   A    
C84   H89   S    
C94   H117  S    
C148  H87   S    
C52   C61   A    
N9    N32   A    
C191  H2    S    
C130  C165  A    
C91   H108  S    
C81   H78   S    
C58   C117  A    
C20   C47   A    
C3    C11   A    
C129  C137  A    
C93   O6    S    
C85   H91   S    
C131  H126  S    
N12   N21   A    
C91   O4    S    
C27   C38   A    
C9    C191  A    
C190  H142  S    
C45   C184  A    
C154  H120  S    
C107  O9    S    
N10   Ni1   S    
C192  H13   S    
C48   C76   S    
C69   C77   A    
C23   N16   A    
C50   C188  A    
C37   C116  A    
C135  H130  S    
C133  C142  A    
C80   H74   S    
C50   C74   S    
C102  O15   S    
C104  H49   S    
C60   C119  A    
C88   H101  S    
C135  C170  A    
C1    N1    A    
C59   C67   A    
C103  H48   S    
C46   C108  A    
C64   C73   A    
C30   C41   A    
C31   H68   S    
C185  N4    A    
C152  C161  A    
C109  O11   S    
C161  C169  A    
C181  N32   A    
C34   C122  S    
C100  O14   S    
C108  O10   S    
C46   C75   A    
C99   H37   S    
C1    C34   A    
C33   C40   A    
C94   H119  S    
C45   C70   S    
C38   C121  S    
C136  C172  A    
C35   C107  A    
C131  C166  A    
C133  C168  A    
C140  O4    S    
C43   C181  A    
C81   H80   S    
C65   C74   A    
N8    Ni7   S    
C127  O19   S    
C151  C159  A    
N5    Ni7   S    
C41   C160  A    
N26   Ni8   S    
C92   O5    S    
C130  H125  S    
C88   O2    S    
C107  C115  A    
N2    Ni6   S    
C25   N17   A    
C44   C183  A    
C33   N26   A    
C78   O1    S    
C59   C118  A    
C1    O1    S    
C24   C106  A    
C150  H76   S    
C139  O24   S    
N7    N16   A    
C132  C141  A    
C6    C180  A    
C108  C117  A    
C124  C151  A    
C100  H39   S    
C95   H122  S    
C4    C178  A    
C110  C119  A    
C19   C45   A    
C89   H104  S    
C175  C180  A    
C55   C114  A    
C104  H51   S    
C111  C117  S    
C88   H103  S    
C21   C48   A    
C68   H25   S    
C122  C140  A    
C80   O12   S    
C20   H145  S    
C60   C69   A    
C125  C143  A    
C84   H88   S    
N1    N20   A    
C126  C144  A    
C49   C77   S    
C62   C71   A    
N12   Ni2   S    
C148  C157  A    
C32   H69   S    
C42   C171  A    
C11   C172  A    
N22   Ni8   S    
C96   O9    S    
C19   N11   A    
C61   C70   A    
C93   H114  S    
C35   C74   A    
N27   Ni1   S    
N28   Ni3   S    
C149  O21   S    
C86   H95   S    
C13   H19   S    
C188  H139  S    
C132  C167  A    
N15   Ni3   S    
N22   N30   A    
C160  O22   S    
C156  C174  A    
C41   C124  S    
C24   C73   A    
C16   C167  A    
C92   H113  S    
C97   O10   S    
C127  N27   A    
C97   H30   S    
C80   H77   S    
C32   C39   A    
N24   Ni7   S    
C142  O6    S    
C56   H4    S    
C104  O17   S    
C70   C182  A    
C146  C155  A    
C57   H23   S    
C171  N31   A    
C158  C167  A    
C87   H99   S    
C151  H109  S    
C47   C185  A    
C9    H53   S    
C51   C189  A    
C98   H33   S    
C52   H150  S    
C28   C34   A    
C102  H43   S    
C39   C126  S    
C100  H41   S    
C28   N20   A    
C130  C139  A    
C186  N5    A    
C89   H106  S    
C94   O7    S    
N18   N23   A    
C19   H144  S    
C78   H73   S    
C82   H81   S    
N19   Ni5   S    
N16   Ni3   S    
N32   Ni5   S    
C23   C50   A    
C3    H24   S    
C12   H56   S    
C84   H90   S    
C134  H129  S    
C10   C192  A    
C143  O5    S    
C187  N6    A    
C12   C164  A    
C49   C187  A    
C91   H107  S    
C36   C123  S    
C82   O19   S    
N30   Ni4   S    
C147  C156  A    
C35   H21   S    
C5    C14   A    
C174  C190  A    
C3    C175  A    
C7    C16   A    
C64   H11   S    
C92   H111  S    
C79   O14   S    
C150  C158  A    
C6    H57   S    
C36   C105  A    
C138  O20   S    
C31   N24   A    
C26   C37   A    
C14   H58   S    
N31   Ni3   S    
C10   C170  A    
C96   H27   S    
C29   H66   S    
C4    H35   S    
C153  C162  A    
C184  H135  S    
C84   O21   S    
C95   H123  S    
C187  H138  S    
C121  C139  A    
C65   H12   S    
C156  C165  A    
C104  H50   S    
C66   C75   A    
C87   H97   S    
C56   C115  A    
C40   C149  A    
C82   H83   S    
C88   H102  S    
C184  N3    A    
C44   C73   S    
N26   N29   A    
C23   H148  S    
C126  C153  A    
C63   C72   A    
C103  H47   S    
C120  C137  A    
N3    N11   A    
C161  C178  A    
C27   H63   S    
C160  N30   A    
C145  O7    S    
C110  O13   S    
C55   H3    S    
N8    N17   A    
C43   C72   S    
C78   H71   S    
C90   C112  A    
C83   H86   S    
N4    Ni5   S    
C25   H149  S    
C38   C127  A    
C24   H20   S    
C53   H151  S    
C29   C36   A    
C85   H93   S    
C106  C114  A    
C173  C178  A    
C138  N28   A    
C51   C75   S    
N23   Ni2   S    
C185  H136  S    
N11   Ni1   S    
C66   H14   S    
N13   Ni2   S    
C176  C192  A    
C183  H134  S    
C56   C65   A    
C54   C113  A    
C81   H79   S    
C159  C168  A    
C42   C125  S    
C6    C15   A    
N7    Ni8   S    
C99   O13   S    
C46   H22   S    
C85   H92   S    
C162  C170  A    
C147  H1    S    
C136  C145  A    
C60   H7    S    
C181  H133  S    
C155  C173  A    
C141  O3    S    
C7    H61   S    
C105  O12   S    
C54   H152  S    
C124  C142  A    
C159  C177  A    
C61   H8    S    
C95   O8    S    
C58   C66   A    
C2    H18   S    
C30   H67   S    
C144  O8    S    
C154  C163  A    
C100  H40   S    
C95   H121  S    
C26   H62   S    
C105  N12   A    
C149  N29   A    
C52   C111  A    
C17   N9    A    
C182  H17   S    
N17   Ni4   S    
C98   H32   S    
C25   C51   A    
C48   C186  A    
C125  C152  A    
C53   C62   A    
C91   H110  S    
C123  C150  A    
C103  H45   S    
C47   C71   S    
C55   C64   A    
C26   N18   A    
C7    C179  A    
C113  C119  S    
C14   C165  A    
C5    C177  A    
C162  C179  A    
C114  C118  S    
C157  C175  A    
C53   C112  A    
C158  C176  A    
C135  C144  A    
C101  O16   S    
C13   C101  A    
C83   H84   S    
C99   H38   S    
C67   H15   S    
C29   N21   A    
C85   O22   S    
C94   H118  S    
C86   H96   S    
C93   H116  S    
C28   H64   S    
C133  H128  S    
C18   H143  S    
C89   O3    S    
C157  C166  A    
N24   N31   A    
C20   N13   A    
C155  C164  A    
N18   Ni6   S    
C79   C111  A    
C11   H55   S    
C137  O2    S    
C116  N23   A    
C37   C120  S    
N1    Ni1   S    
C96   H26   S    
C97   H29   S    
C136  H132  S    
C39   C138  A    
N21   Ni6   S    
C163  C180  A    
C146  H65   S    
C67   C76   A    
C112  C115  S    
C22   N15   A    
C98   H34   S    
