data_mof_unit_4329.cif
_audit_creation_date              2012-12-11T15:08:56-0500
_audit_creation_method            fapswitch 2.2
_symmetry_space_group_name_H-M    P1
_symmetry_Int_Tables_number       1
_space_group_crystal_system       triclinic
_cell_length_a                    21.556538
_cell_length_b                    21.55766
_cell_length_c                    22.299259
_cell_angle_alpha                 90.027679
_cell_angle_beta                  90.082662
_cell_angle_gamma                 89.928578
_cell_volume                      10362.6355436

loop_
_atom_site_label
_atom_site_type_symbol
_atom_type_description
_atom_site_fract_x
_atom_site_fract_y
_atom_site_fract_z
_atom_type_partial_charge
C1    C     C_R   0.916161 0.156206 0.084688 -0.055763
C2    C     C_R   0.058438 0.867397 0.886647 -0.105598
C3    C     C_R   0.132911 0.061092 0.114195 -0.059902
C4    C     C_R   0.844460 0.917530 0.912169 -0.035693
C5    C     C_R   0.083817 0.843820 0.084741 -0.055742
C6    C     C_R   0.941281 0.132460 0.886521 -0.104178
C7    C     C_R   0.867032 0.938784 0.114081 -0.059752
C8    C     C_R   0.155362 0.082313 0.911990 -0.037972
C9    C     C_R   0.916263 0.843775 0.915366 -0.056638
C10   C     C_R   0.058483 0.132588 0.113360 -0.105526
C11   C     C_R   0.132809 0.938812 0.885841 -0.059346
C12   C     C_R   0.844524 0.082424 0.087891 -0.037782
C13   C     C_R   0.083532 0.156116 0.915152 -0.056302
C14   C     C_R   0.941507 0.867312 0.113289 -0.105759
C15   C     C_R   0.866941 0.061021 0.885924 -0.061086
C16   C     C_R   0.155505 0.917557 0.087970 -0.037614
C17   C     C_R   0.417679 0.655550 0.587867 -0.036821
C18   C     C_R   0.560975 0.367072 0.385859 -0.059595
C19   C     C_R   0.632684 0.558498 0.613335 -0.109224
C20   C     C_R   0.343823 0.416170 0.415212 -0.070967
C21   C     C_R   0.582888 0.344408 0.587498 -0.127491
C22   C     C_R   0.438996 0.632777 0.385815 -0.063407
C23   C     C_R   0.367293 0.441364 0.613256 -0.111435
C24   C     C_R   0.656127 0.583784 0.415240 -0.069941
C25   C     C_R   0.417670 0.344410 0.412245 -0.037420
C26   C     C_R   0.561175 0.632928 0.614148 -0.063484
C27   C     C_R   0.632328 0.441490 0.386533 -0.106418
C28   C     C_R   0.343890 0.583856 0.584838 -0.067125
C29   C     C_R   0.582295 0.655565 0.412264 -0.037200
C30   C     C_R   0.438805 0.366897 0.614045 -0.078298
C31   C     C_R   0.367623 0.558391 0.386471 -0.107050
C32   C     C_R   0.656460 0.416193 0.584240 -0.034269
C33   C     C_R   0.710226 0.776752 0.849973 0.150584
C34   C     C_R   0.127354 0.217820 0.268607 0.103223
C35   C     C_R   0.874146 0.215557 0.728853 0.102136
C36   C     C_R   0.290038 0.777001 0.150472 0.150883
C37   C     C_R   0.289100 0.222855 0.849753 0.151639
C38   C     C_R   0.872138 0.781544 0.267987 0.103653
C39   C     C_R   0.127403 0.781970 0.731584 0.103560
C40   C     C_R   0.709930 0.222769 0.150379 0.150977
C41   C     C_R   0.277014 0.210108 0.349844 0.154651
C42   C     C_R   0.717719 0.626850 0.769331 0.118743
C43   C     C_R   0.283049 0.626774 0.230429 0.128609
C44   C     C_R   0.723115 0.209584 0.649878 0.148291
C45   C     C_R   0.722867 0.789622 0.349475 0.154516
C46   C     C_R   0.281416 0.372247 0.768407 0.129160
C47   C     C_R   0.716881 0.372876 0.230694 0.128511
C48   C     C_R   0.276866 0.789786 0.650461 0.154583
C49   C     C_R   0.247448 0.105880 0.320171 -0.066136
C50   C     C_R   0.820949 0.655112 0.799747 -0.062475
C51   C     C_R   0.179689 0.655160 0.200274 -0.064519
C52   C     C_R   0.751085 0.105347 0.681068 -0.065761
C53   C     C_R   0.752540 0.893774 0.319816 -0.065965
C54   C     C_R   0.178207 0.344041 0.798599 -0.065924
C55   C     C_R   0.820214 0.344693 0.200531 -0.064911
C56   C     C_R   0.246993 0.894002 0.680046 -0.066190
C57   C     C_R   0.606022 0.747548 0.819835 -0.068938
C58   C     C_R   0.156550 0.321239 0.297570 -0.064125
C59   C     C_R   0.847440 0.318682 0.696720 -0.060853
C60   C     C_R   0.394324 0.747822 0.180607 -0.069670
C61   C     C_R   0.393169 0.251805 0.819613 -0.061366
C62   C     C_R   0.842867 0.678212 0.296990 -0.063579
C63   C     C_R   0.156858 0.678576 0.702646 -0.064046
C64   C     C_R   0.605676 0.251713 0.180578 -0.069538
C65   C     C_R   0.798575 0.712757 0.819660 -0.062931
C66   C     C_R   0.195220 0.129317 0.289483 -0.054815
C67   C     C_R   0.804221 0.128263 0.710545 -0.053511
C68   C     C_R   0.201874 0.712872 0.180534 -0.061343
C69   C     C_R   0.200667 0.286565 0.818878 -0.063783
C70   C     C_R   0.804616 0.870227 0.289083 -0.054926
C71   C     C_R   0.194911 0.870528 0.710697 -0.054768
C72   C     C_R   0.798065 0.286986 0.180636 -0.061295
C73   C     C_R   0.213861 0.298614 0.318174 -0.084405
C74   C     C_R   0.629385 0.695090 0.789537 -0.049851
C75   C     C_R   0.371121 0.695240 0.210668 -0.049570
C76   C     C_R   0.789037 0.297186 0.677949 -0.078251
C77   C     C_R   0.785705 0.700965 0.317717 -0.084379
C78   C     C_R   0.369740 0.304130 0.789127 -0.081475
C79   C     C_R   0.628859 0.304312 0.210746 -0.049453
C80   C     C_R   0.214055 0.701234 0.682075 -0.084141
C81   C     C_R   0.733888 0.722743 0.823224 0.023346
C82   C     C_R   0.181401 0.193369 0.294698 0.030787
C83   C     C_R   0.819325 0.191805 0.703774 0.030537
C84   C     C_R   0.266534 0.722921 0.177053 0.022224
C85   C     C_R   0.265353 0.276667 0.822672 0.026750
C86   C     C_R   0.818271 0.806131 0.294180 0.030822
C87   C     C_R   0.181309 0.806459 0.705516 0.030791
C88   C     C_R   0.733411 0.276839 0.177109 0.022174
C89   C     C_R   0.223354 0.233897 0.322453 0.029438
C90   C     C_R   0.693326 0.680952 0.795272 0.032537
C91   C     C_R   0.307230 0.681065 0.204841 0.031652
C92   C     C_R   0.777879 0.232666 0.675597 0.028022
C93   C     C_R   0.776348 0.765706 0.321983 0.029359
C94   C     C_R   0.305834 0.318294 0.794624 0.030310
C95   C     C_R   0.692718 0.318586 0.204984 0.031517
C96   C     C_R   0.223340 0.765958 0.677811 0.029424
C97   C     C_R   0.646082 0.787417 0.850573 -0.194601
C98   C     C_R   0.112975 0.280817 0.274004 -0.145671
C99   C     C_R   0.890161 0.277851 0.721249 -0.145229
C100  C     C_R   0.354149 0.787735 0.149973 -0.194727
C101  C     C_R   0.353208 0.212162 0.850504 -0.193167
C102  C     C_R   0.886391 0.718518 0.273320 -0.146365
C103  C     C_R   0.113216 0.718966 0.726192 -0.145918
C104  C     C_R   0.645838 0.211918 0.149856 -0.195160
C105  C     C_R   0.287333 0.145915 0.350937 -0.193465
C106  C     C_R   0.780501 0.611917 0.775616 -0.157776
C107  C     C_R   0.220299 0.611860 0.224135 -0.158873
C108  C     C_R   0.711440 0.145635 0.650258 -0.193925
C109  C     C_R   0.712682 0.853835 0.350586 -0.193271
C110  C     C_R   0.218614 0.387148 0.774409 -0.153456
C111  C     C_R   0.779597 0.387893 0.224472 -0.158489
C112  C     C_R   0.286964 0.853988 0.649350 -0.193516
C113  C     C_R   0.857881 0.142262 0.106523 0.168959
C114  C     C_R   0.101856 0.895631 0.849922 0.125834
C115  C     C_R   0.101979 0.104270 0.150132 0.125921
C116  C     C_R   0.857918 0.857687 0.893533 0.171452
C117  C     C_R   0.142122 0.857756 0.106651 0.169807
C118  C     C_R   0.897745 0.103977 0.849841 0.124631
C119  C     C_R   0.897921 0.895490 0.149977 0.126302
C120  C     C_R   0.141740 0.142068 0.893258 0.172547
C121  C     C_R   0.357979 0.642195 0.606602 0.203468
C122  C     C_R   0.603948 0.397945 0.349844 0.123299
C123  C     C_R   0.604420 0.602020 0.650074 0.129339
C124  C     C_R   0.357886 0.357765 0.393545 0.205034
C125  C     C_R   0.642946 0.357800 0.605913 0.146941
C126  C     C_R   0.396008 0.601804 0.349765 0.125356
C127  C     C_R   0.395377 0.397590 0.649905 0.155573
C128  C     C_R   0.642019 0.642159 0.393543 0.205193
C129  C     C_R   0.838968 0.761715 0.833046 0.424542
C130  C     C_R   0.159233 0.092595 0.249713 0.411747
C131  C     C_R   0.839952 0.091627 0.750607 0.410653
C132  C     C_R   0.161315 0.761799 0.167144 0.423348
C133  C     C_R   0.160389 0.237635 0.832392 0.426351
C134  C     C_R   0.840630 0.906920 0.249432 0.411492
C135  C     C_R   0.158867 0.907239 0.750398 0.411802
C136  C     C_R   0.838667 0.238147 0.167144 0.423584
C137  C     C_R   0.262963 0.338754 0.331755 0.478543
C138  C     C_R   0.592713 0.659196 0.749646 0.392917
C139  C     C_R   0.407890 0.659214 0.250409 0.396940
C140  C     C_R   0.740467 0.338357 0.664784 0.468539
C141  C     C_R   0.736626 0.660918 0.331477 0.479037
C142  C     C_R   0.406390 0.339904 0.749357 0.465036
C143  C     C_R   0.592103 0.340280 0.250493 0.396926
C144  C     C_R   0.263232 0.661117 0.668476 0.477832
C145  C     C_R   0.815608 0.812854 0.865958 -0.089085
C146  C     C_R   0.115238 0.123091 0.212790 -0.097710
C147  C     C_R   0.884517 0.122021 0.786932 -0.098374
C148  C     C_R   0.184537 0.812971 0.134316 -0.089755
C149  C     C_R   0.183871 0.186760 0.865588 -0.089775
C150  C     C_R   0.884463 0.876373 0.212454 -0.097795
C151  C     C_R   0.115066 0.876729 0.787312 -0.097938
C152  C     C_R   0.815455 0.187005 0.134167 -0.090020
C153  C     C_R   0.313404 0.315396 0.365607 -0.078006
C154  C     C_R   0.623306 0.615326 0.712694 -0.082628
C155  C     C_R   0.377451 0.615061 0.287028 -0.090460
C156  C     C_R   0.688196 0.315368 0.633090 -0.082005
C157  C     C_R   0.686400 0.684413 0.365430 -0.077896
C158  C     C_R   0.375990 0.383806 0.712261 -0.052687
C159  C     C_R   0.622537 0.384489 0.287187 -0.090399
C160  C     C_R   0.313527 0.684524 0.634665 -0.078079
C161  C     C_R   0.751335 0.819636 0.874557 -0.245306
C162  C     C_R   0.092732 0.181194 0.230699 -0.186669
C163  C     C_R   0.907943 0.179284 0.767877 -0.187982
C164  C     C_R   0.248812 0.819849 0.125885 -0.244956
C165  C     C_R   0.248104 0.180121 0.874453 -0.247841
C166  C     C_R   0.906732 0.818094 0.230117 -0.186841
C167  C     C_R   0.092746 0.818575 0.769458 -0.187761
C168  C     C_R   0.751167 0.180042 0.125682 -0.245482
C169  C     C_R   0.319829 0.251151 0.374673 -0.262082
C170  C     C_R   0.681437 0.592815 0.730646 -0.242976
C171  C     C_R   0.319550 0.592450 0.268747 -0.261093
C172  C     C_R   0.680456 0.251061 0.625390 -0.251831
C173  C     C_R   0.680106 0.748688 0.374420 -0.261551
C174  C     C_R   0.317754 0.406201 0.729841 -0.282716
C175  C     C_R   0.680412 0.407124 0.269028 -0.260608
C176  C     C_R   0.319756 0.748777 0.625658 -0.261562
H1    H     H_    0.935984 0.201909 0.080012 0.137118
H2    H     H_    0.026496 0.831297 0.875131 0.168958
H3    H     H_    0.171590 0.032640 0.127045 0.166652
H4    H     H_    0.799609 0.939921 0.911627 0.092429
H5    H     H_    0.063961 0.798126 0.080026 0.137062
H6    H     H_    0.973052 0.168630 0.874857 0.168585
H7    H     H_    0.828321 0.967192 0.126866 0.166432
H8    H     H_    0.200194 0.059890 0.911354 0.092157
H9    H     H_    0.936224 0.798083 0.920113 0.136953
H10   H     H_    0.026521 0.168735 0.124834 0.168292
H11   H     H_    0.171439 0.967186 0.873002 0.166410
H12   H     H_    0.799752 0.059995 0.088474 0.092025
H13   H     H_    0.063557 0.201820 0.919744 0.136676
H14   H     H_    0.973496 0.831175 0.124779 0.168737
H15   H     H_    0.828264 0.032585 0.873282 0.167747
H16   H     H_    0.200305 0.939935 0.088583 0.092009
H17   H     H_    0.440086 0.700338 0.588454 0.089884
H18   H     H_    0.532586 0.328384 0.373121 0.165742
H19   H     H_    0.668878 0.526545 0.624775 0.168714
H20   H     H_    0.298084 0.436188 0.419439 0.133526
H21   H     H_    0.560497 0.299622 0.588073 0.113493
H22   H     H_    0.467385 0.671416 0.373064 0.166222
H23   H     H_    0.331215 0.473388 0.624755 0.163556
H24   H     H_    0.701867 0.563738 0.419447 0.133701
H25   H     H_    0.440151 0.299603 0.411744 0.090629
H26   H     H_    0.532766 0.671624 0.626951 0.165075
H27   H     H_    0.668329 0.473451 0.374901 0.165353
H28   H     H_    0.298154 0.563923 0.580596 0.132374
H29   H     H_    0.559831 0.700382 0.411730 0.090196
H30   H     H_    0.467365 0.328260 0.626799 0.160405
H31   H     H_    0.331602 0.526415 0.374793 0.165289
H32   H     H_    0.702037 0.436194 0.579228 0.137289
H33   H     H_    0.627236 0.828533 0.871819 0.143267
H34   H     H_    0.070474 0.299612 0.255299 0.184480
H35   H     H_    0.933364 0.296012 0.738919 0.187799
H36   H     H_    0.372873 0.828913 0.128865 0.143243
H37   H     H_    0.372086 0.171161 0.871946 0.142159
H38   H     H_    0.928764 0.699617 0.254543 0.183808
H39   H     H_    0.070819 0.700143 0.744872 0.184470
H40   H     H_    0.627128 0.170736 0.128651 0.143222
H41   H     H_    0.328194 0.126984 0.372624 0.142948
H42   H     H_    0.799193 0.569267 0.757188 0.186048
H43   H     H_    0.201757 0.569107 0.242333 0.185165
H44   H     H_    0.669744 0.127204 0.629753 0.142920
H45   H     H_    0.671956 0.872866 0.372333 0.142966
H46   H     H_    0.199889 0.429679 0.755751 0.183808
H47   H     H_    0.798118 0.430651 0.242770 0.185243
H48   H     H_    0.327714 0.872948 0.627688 0.142896
H49   H     H_    0.732958 0.859182 0.898653 0.142789
H50   H     H_    0.054100 0.202907 0.208484 0.218263
H51   H     H_    0.946904 0.200716 0.789714 0.221048
H52   H     H_    0.267105 0.859420 0.101879 0.142689
H53   H     H_    0.266544 0.140775 0.898826 0.142831
H54   H     H_    0.945202 0.796266 0.207818 0.217232
H55   H     H_    0.054262 0.796828 0.791688 0.218182
H56   H     H_    0.732880 0.140479 0.101569 0.142632
H57   H     H_    0.359007 0.232770 0.399388 0.144078
H58   H     H_    0.703507 0.554641 0.708055 0.211120
H59   H     H_    0.297856 0.553902 0.290893 0.208846
H60   H     H_    0.640253 0.232906 0.602187 0.147302
H61   H     H_    0.641080 0.767168 0.399200 0.144021
H62   H     H_    0.295824 0.444411 0.707233 0.208805
H63   H     H_    0.702110 0.445686 0.291229 0.209099
H64   H     H_    0.358815 0.767187 0.600966 0.143985
H65   H     H_    0.259984 0.057393 0.318193 0.201372
H66   H     H_    0.869838 0.643773 0.801123 0.196754
H67   H     H_    0.130835 0.643799 0.198878 0.196698
H68   H     H_    0.737609 0.057211 0.684238 0.200843
H69   H     H_    0.740104 0.942289 0.317897 0.201426
H70   H     H_    0.129299 0.355308 0.799764 0.196789
H71   H     H_    0.869050 0.356124 0.199184 0.196576
H72   H     H_    0.259352 0.942507 0.681999 0.201352
H73   H     H_    0.557616 0.760344 0.817455 0.200727
H74   H     H_    0.145695 0.370251 0.298176 0.195615
H75   H     H_    0.859705 0.367265 0.694290 0.197121
H76   H     H_    0.442689 0.760640 0.183059 0.201075
H77   H     H_    0.441542 0.238907 0.817278 0.200901
H78   H     H_    0.853654 0.629187 0.297601 0.195729
H79   H     H_    0.146132 0.629565 0.702026 0.195860
H80   H     H_    0.557344 0.238796 0.182998 0.201091
N1    N     N_R   0.940200 0.105310 0.059970 -0.054047
N2    N     N_R   0.059800 0.894690 0.940030 -0.061418
N3    N     N_R   0.105310 0.059800 0.059970 -0.067649
N4    N     N_R   0.894690 0.940200 0.940030 -0.052697
N5    N     N_R   0.059800 0.894690 0.059970 -0.054015
N6    N     N_R   0.940200 0.105310 0.940030 -0.061352
N7    N     N_R   0.894690 0.940200 0.059970 -0.067737
N8    N     N_R   0.105310 0.059800 0.940030 -0.052519
N9    N     N_R   0.940200 0.894690 0.940030 -0.054079
N10   N     N_R   0.059800 0.105310 0.059970 -0.061389
N11   N     N_R   0.105310 0.940200 0.940030 -0.067664
N12   N     N_R   0.894690 0.059800 0.059970 -0.052368
N13   N     N_R   0.059800 0.105310 0.940030 -0.054027
N14   N     N_R   0.940200 0.894690 0.059970 -0.061474
N15   N     N_R   0.894690 0.059800 0.940030 -0.067635
N16   N     N_R   0.105310 0.940200 0.059970 -0.052464
N17   N     N_R   0.440200 0.605310 0.559970 -0.052944
N18   N     N_R   0.559800 0.394690 0.440030 -0.064509
N19   N     N_R   0.605310 0.559800 0.559970 -0.061171
N20   N     N_R   0.394690 0.440200 0.440030 -0.053825
N21   N     N_R   0.559800 0.394690 0.559970 -0.044443
N22   N     N_R   0.440200 0.605310 0.440030 -0.068041
N23   N     N_R   0.394690 0.440200 0.559970 -0.059907
N24   N     N_R   0.605310 0.559800 0.440030 -0.053788
N25   N     N_R   0.440200 0.394690 0.440030 -0.054000
N26   N     N_R   0.559800 0.605310 0.559970 -0.067156
N27   N     N_R   0.605310 0.440200 0.440030 -0.059471
N28   N     N_R   0.394690 0.559800 0.559970 -0.051769
N29   N     N_R   0.559800 0.605310 0.440030 -0.054054
N30   N     N_R   0.440200 0.394690 0.559970 -0.064352
N31   N     N_R   0.394690 0.559800 0.440030 -0.060538
N32   N     N_R   0.605310 0.440200 0.559970 -0.054022
Ni1   Ni    Ni4+2 0.000000 0.104370 0.000000 0.235829
Ni2   Ni    Ni4+2 0.000000 0.895630 0.000000 0.235634
Ni3   Ni    Ni4+2 0.104370 0.000000 0.000000 0.222660
Ni4   Ni    Ni4+2 0.895630 0.000000 0.000000 0.222419
Ni5   Ni    Ni4+2 0.500000 0.604370 0.500000 0.222235
Ni6   Ni    Ni4+2 0.500000 0.395630 0.500000 0.225394
Ni7   Ni    Ni4+2 0.604370 0.500000 0.500000 0.236814
Ni8   Ni    Ni4+2 0.395630 0.500000 0.500000 0.236512
S1    S     S_3+6 0.912489 0.764726 0.796012 -0.077304
O1    O     O_2   0.959563 0.729154 0.831985 -0.345690
O2    O     O_2   0.907735 0.735503 0.734920 -0.274411
O3    O     O_3   0.936590 0.838299 0.787062 -0.524337
H81   H     H_    0.908237 0.856063 0.756581 0.401394
S2    S     S_3+6 0.163465 0.010190 0.250967 -0.056627
O4    O     O_2   0.222512 0.989226 0.221448 -0.304759
O5    O     O_2   0.163418 0.987779 0.314799 -0.267858
O6    O     O_3   0.102516 0.978520 0.215122 -0.520943
H82   H     H_    0.065727 0.991568 0.238536 0.355679
S3    S     S_3+6 0.835025 0.009273 0.749957 -0.057243
O7    O     O_2   0.776133 0.989141 0.780185 -0.306069
O8    O     O_2   0.834210 0.986362 0.686274 -0.267463
O9    O     O_3   0.896128 0.977319 0.785405 -0.521131
H83   H     H_    0.932766 0.989920 0.761602 0.355544
S4    S     S_3+6 0.087709 0.764716 0.204045 -0.076752
O10   O     O_2   0.040860 0.729019 0.167989 -0.345506
O11   O     O_2   0.092489 0.735562 0.265142 -0.273615
O12   O     O_3   0.063247 0.838248 0.212958 -0.523357
H84   H     H_    0.091987 0.856361 0.242881 0.401253
S5    S     S_3+6 0.086900 0.234178 0.795193 -0.079567
O13   O     O_2   0.039712 0.269766 0.830913 -0.346160
O14   O     O_2   0.091509 0.263065 0.733982 -0.276980
O15   O     O_3   0.063158 0.160433 0.786539 -0.524730
H85   H     H_    0.091627 0.142607 0.756256 0.402379
S6    S     S_3+6 0.836633 0.989342 0.250929 -0.056376
O16   O     O_2   0.777622 0.010531 0.221346 -0.304645
O17   O     O_2   0.836781 0.011609 0.314829 -0.267549
O18   O     O_3   0.897638 0.020951 0.215320 -0.520737
H86   H     H_    0.934409 0.007761 0.238777 0.355684
S7    S     S_3+6 0.162757 0.989643 0.749066 -0.057040
O19   O     O_2   0.221794 0.010744 0.778581 -0.304813
O20   O     O_2   0.162434 0.011994 0.685214 -0.268363
O21   O     O_3   0.101766 0.021208 0.784881 -0.520382
H87   H     H_    0.064972 0.008108 0.761444 0.355690
S8    S     S_3+6 0.912304 0.235194 0.204167 -0.077133
O22   O     O_2   0.959138 0.270850 0.168218 -0.345594
O23   O     O_2   0.907630 0.264339 0.265288 -0.273560
O24   O     O_3   0.936684 0.161627 0.213034 -0.523763
H88   H     H_    0.907804 0.143466 0.242706 0.401257
S9    S     S_3+6 0.267352 0.411733 0.293935 -0.073873
O25   O     O_2   0.239558 0.405606 0.232286 -0.285508
O26   O     O_2   0.231153 0.459527 0.328327 -0.364094
O27   O     O_3   0.341573 0.434829 0.286691 -0.509705
H89   H     H_    0.344148 0.454858 0.246818 0.383836
S10   S     S_3+6 0.510276 0.663599 0.750776 -0.033175
O28   O     O_2   0.487896 0.663833 0.814598 -0.255182
O29   O     O_2   0.489480 0.722628 0.721042 -0.300922
O30   O     O_3   0.478275 0.602679 0.715180 -0.481691
H90   H     H_    0.491551 0.565870 0.738493 0.369129
S11   S     S_3+6 0.490302 0.663679 0.249383 -0.038940
O31   O     O_2   0.512760 0.664047 0.185589 -0.259128
O32   O     O_2   0.510890 0.722656 0.279308 -0.299043
O33   O     O_3   0.522399 0.602693 0.284860 -0.489336
H91   H     H_    0.509338 0.565938 0.261370 0.347751
S12   S     S_3+6 0.739696 0.412490 0.701050 -0.089779
O34   O     O_2   0.770057 0.407164 0.761649 -0.290004
O35   O     O_2   0.775621 0.458435 0.664269 -0.343349
O36   O     O_3   0.666751 0.438406 0.710840 -0.575521
H92   H     H_    0.663481 0.449597 0.753803 0.389386
S13   S     S_3+6 0.732011 0.587807 0.293846 -0.074064
O37   O     O_2   0.759431 0.593716 0.232102 -0.285857
O38   O     O_2   0.768444 0.540165 0.328259 -0.364374
O39   O     O_3   0.657762 0.564645 0.286863 -0.509581
H93   H     H_    0.654961 0.544473 0.247047 0.383823
S14   S     S_3+6 0.488631 0.335785 0.751250 -0.053692
O40   O     O_2   0.510466 0.335252 0.815298 -0.250934
O41   O     O_2   0.509860 0.277207 0.720897 -0.346462
O42   O     O_3   0.519494 0.397815 0.716876 -0.524991
H94   H     H_    0.562967 0.385807 0.708990 0.402839
S15   S     S_3+6 0.509691 0.335693 0.249344 -0.039007
O43   O     O_2   0.487145 0.335154 0.185516 -0.259218
O44   O     O_2   0.489240 0.276746 0.279299 -0.298625
O45   O     O_3   0.477525 0.396701 0.284698 -0.489748
H95   H     H_    0.490521 0.433431 0.261208 0.347768
S16   S     S_3+6 0.267767 0.587994 0.706061 -0.071860
O46   O     O_2   0.240342 0.594049 0.767798 -0.283271
O47   O     O_2   0.231276 0.540496 0.671593 -0.366558
O48   O     O_3   0.341967 0.564532 0.713093 -0.502051
H96   H     H_    0.344095 0.542282 0.751884 0.387454

loop_
_geom_bond_atom_site_label_1
_geom_bond_atom_site_label_2
_ccdc_geom_bond_type
S6    O17   D    
S13   O37   D    
C130  C146  A    
C62   C77   A    
C39   C87   A    
S9    O25   D    
C19   N19   A    
C56   H72   S    
N8    N13   A    
C41   C105  A    
C116  C145  S    
C45   C109  A    
S6    O18   S    
C139  S11   S    
C134  S6    S    
N24   Ni7   S    
S16   O46   D    
C154  C170  A    
N19   N26   A    
N24   N29   A    
N5    N16   A    
C42   C170  A    
N6    N15   A    
C158  C174  A    
N7    N14   A    
C101  H37   S    
C61   H77   S    
C46   C174  A    
C84   C91   A    
N12   Ni4   S    
C129  C145  A    
C44   C92   A    
C138  C154  A    
C76   C140  A    
C88   C95   A    
C4    N4    A    
C165  H53   S    
C112  H48   S    
C1    C113  A    
C142  C158  A    
C163  H51   S    
C136  C152  A    
C22   H22   S    
C172  H60   S    
N21   N32   A    
O21   H87   S    
N23   N30   A    
C7    C119  A    
O27   H89   S    
C104  H40   S    
S10   O28   D    
C24   N24   A    
C41   C169  A    
C35   C163  A    
C132  C148  A    
S5    O15   S    
C33   C161  A    
C44   C172  A    
C31   H31   S    
C21   N21   A    
C168  H56   S    
C74   C138  A    
C49   H65   S    
O36   H92   S    
C57   C97   A    
S12   O34   D    
C14   N14   A    
C137  C153  A    
C39   C103  A    
C42   C106  A    
C140  C156  A    
C107  H43   S    
C81   C90   A    
C141  C157  A    
S13   O39   S    
C105  H41   S    
C46   C110  A    
C64   C79   A    
C26   C123  A    
C57   H73   S    
S9    O27   S    
C109  H45   S    
O3    H81   S    
C53   C109  A    
C28   N28   A    
C15   H15   S    
C30   C127  A    
C43   C171  A    
C48   C96   A    
C55   C111  A    
C9    C116  A    
C21   H21   S    
C60   C100  A    
S10   O30   S    
C17   N17   A    
O48   H96   S    
S16   O48   S    
N26   Ni5   S    
C15   C118  A    
C7    H7    S    
C40   C88   A    
C133  S5    S    
O42   H94   S    
C2    C114  A    
C74   C90   A    
C145  C161  A    
C78   C94   A    
C151  C167  A    
C129  S1    S    
S15   O45   S    
C33   C97   A    
O33   H91   S    
C77   C141  A    
O24   H88   S    
C24   H24   S    
C51   C107  A    
C14   C119  A    
C70   C134  A    
C138  S10   S    
C123  C154  S    
C57   C74   A    
C41   C89   A    
N4    Ni4   S    
C67   C83   A    
C18   H18   S    
C58   C98   A    
C45   C93   A    
O45   H95   S    
N1    Ni1   S    
C171  H59   S    
C115  C146  S    
C19   C123  A    
C120  C149  S    
C82   C89   A    
C97   H33   S    
C6    H6    S    
C117  C148  S    
C27   H27   S    
C118  C147  S    
C25   H25   S    
N20   Ni8   S    
C173  H61   S    
C40   C104  A    
S14   O40   D    
C150  C166  A    
S12   O36   S    
C29   H29   S    
S4    O10   D    
C54   C110  A    
S5    O14   D    
C79   C143  A    
N27   Ni7   S    
C80   C144  A    
C7    N7    A    
C32   H32   S    
C75   C91   A    
C124  C153  S    
S1    O2    D    
O39   H93   S    
C162  H50   S    
C128  C157  S    
C63   C80   A    
S2    O5    D    
C49   C66   A    
C148  C164  A    
C136  S8    S    
C149  C165  A    
S8    O22   D    
C20   H20   S    
C137  S9    S    
S7    O20   D    
C23   N23   A    
C37   C165  A    
C156  C172  A    
C42   C90   A    
C61   C101  A    
C12   N12   A    
N13   Ni1   S    
C86   C93   A    
C13   N13   A    
C46   C94   A    
C139  C155  A    
C6    N6    A    
N17   Ni5   S    
C52   C67   A    
N19   Ni7   S    
C48   C112  A    
C59   H75   S    
C144  C160  A    
S9    O26   D    
C13   C120  A    
C69   C85   A    
C30   N30   A    
C64   C104  A    
C131  S3    S    
C29   N29   A    
C10   N10   A    
N17   N28   A    
C51   H67   S    
N18   N27   A    
C34   C162  A    
C22   N22   A    
S4    O12   S    
S3    O9    S    
N3    N10   A    
C75   C139  A    
S11   O33   S    
C37   C101  A    
C175  H63   S    
C10   H10   S    
S16   O47   D    
C50   C65   A    
C26   N26   A    
C8    N8    A    
C14   H14   S    
C45   C173  A    
S13   O38   D    
C24   C128  A    
C2    H2    S    
C59   C76   A    
C47   C175  A    
C48   C176  A    
C62   C102  A    
C5    N5    A    
S8    O24   S    
C146  C162  A    
C78   C142  A    
N16   Ni3   S    
S10   O29   D    
N28   Ni8   S    
S1    O1    D    
C68   C132  A    
C140  S12   S    
C152  C168  A    
C102  H38   S    
N21   Ni6   S    
C121  C160  S    
S12   O35   D    
C122  C159  S    
C125  C156  S    
C3    N3    A    
C126  C155  S    
N2    Ni2   S    
C119  C150  S    
S6    O16   D    
O12   H84   S    
C166  H54   S    
C130  S2    S    
C113  C152  S    
C114  C151  S    
C4    H4    S    
C53   C70   A    
C73   C137  A    
C5    H5    S    
C16   N16   A    
C27   C122  A    
C1    N1    A    
C31   N31   A    
C52   H68   S    
S3    O7    D    
C68   C84   A    
C63   C103  A    
N22   N31   A    
S11   O31   D    
C35   C83   A    
C49   C105  A    
C32   N32   A    
N8    Ni3   S    
C47   C111  A    
C79   C95   A    
C98   H34   S    
C65   C81   A    
C56   C71   A    
S15   O44   D    
C111  H47   S    
C127  C158  S    
C169  H57   S    
C71   C87   A    
C144  S16   S    
C17   C121  A    
C176  H64   S    
C38   C86   A    
N9    Ni2   S    
C25   N25   A    
C21   C125  A    
C110  H46   S    
C103  H39   S    
N15   Ni4   S    
C23   C127  A    
C38   C166  A    
O9    H83   S    
C4    C116  A    
N14   Ni2   S    
C65   C129  A    
N6    Ni1   S    
C143  C159  A    
C60   C75   A    
N11   Ni3   S    
N18   Ni6   S    
C73   C89   A    
S7    O19   D    
C3    C115  A    
C16   C117  A    
C27   N27   A    
C54   C69   A    
S14   O41   D    
C135  C151  A    
C77   C93   A    
C34   C98   A    
S4    O11   D    
C54   H70   S    
O18   H86   S    
C72   C136  A    
C141  S13   S    
C108  H44   S    
O6    H82   S    
C153  C169  A    
C50   C106  A    
C11   N11   A    
C147  C163  A    
N4    N9    A    
C157  C173  A    
S14   O42   S    
C134  C150  A    
C19   H19   S    
C59   C99   A    
N7    Ni4   S    
C17   H17   S    
S15   O43   D    
C20   N20   A    
C83   C92   A    
C170  H58   S    
S2    O6    S    
N30   Ni6   S    
C11   H11   S    
C37   C85   A    
C26   H26   S    
S8    O23   D    
C9    H9    S    
C174  H62   S    
C71   C135  A    
C22   C126  A    
C66   C82   A    
N20   N25   A    
N23   Ni8   S    
C12   H12   S    
C23   H23   S    
C142  S14   S    
C13   H13   S    
N31   Ni8   S    
N32   Ni7   S    
C11   C114  A    
C3    H3    S    
C16   H16   S    
C1    H1    S    
C63   H79   S    
C80   C96   A    
C55   C72   A    
C8    H8    S    
C55   H71   S    
N5    Ni2   S    
C160  C176  A    
N1    N12   A    
C35   C99   A    
N2    N11   A    
C72   C88   A    
C161  H49   S    
C44   C108  A    
C135  S7    S    
C36   C164  A    
C20   C124  A    
C28   H28   S    
C133  C149  A    
C36   C100  A    
C28   C121  A    
C99   H35   S    
C43   C107  A    
N22   Ni5   S    
C100  H36   S    
C43   C91   A    
C5    C117  A    
S3    O8    D    
C32   C125  A    
N25   Ni6   S    
S11   O32   D    
C85   C94   A    
N3    Ni3   S    
C61   C78   A    
C87   C96   A    
C164  H52   S    
C132  S4    S    
C131  C147  A    
C15   N15   A    
C76   C92   A    
C2    N2    A    
C18   C122  A    
C9    N9    A    
S1    O3    S    
C58   H74   S    
C70   C86   A    
C143  S15   S    
C8    C120  A    
C12   C113  A    
C62   H78   S    
S2    O4    D    
C69   C133  A    
C106  H42   S    
C67   C131  A    
C50   H66   S    
S7    O21   S    
C167  H55   S    
C34   C82   A    
O15   H85   S    
C38   C102  A    
C64   H80   S    
C30   H30   S    
C36   C84   A    
C56   C112  A    
N10   Ni1   S    
C51   C68   A    
C39   C167  A    
S5    O13   D    
C25   C124  A    
C53   H69   S    
C40   C168  A    
C155  C171  A    
C52   C108  A    
C29   C128  A    
N29   Ni5   S    
C60   H76   S    
C47   C95   A    
C159  C175  A    
C31   C126  A    
C18   N18   A    
O30   H90   S    
C33   C81   A    
C6    C118  A    
C10   C115  A    
C58   C73   A    
C66   C130  A    
