data_mof_unit_4075.cif
_audit_creation_date              2012-12-11T15:22:25-0500
_audit_creation_method            fapswitch 2.2
_symmetry_space_group_name_H-M    P1
_symmetry_Int_Tables_number       1
_space_group_crystal_system       triclinic
_cell_length_a                    22.395941
_cell_length_b                    13.037074
_cell_length_c                    26.905632
_cell_angle_alpha                 90.225036
_cell_angle_beta                  90.235363
_cell_angle_gamma                 89.72318
_cell_volume                      7855.62229485

loop_
_atom_site_label
_atom_site_type_symbol
_atom_type_description
_atom_site_fract_x
_atom_site_fract_y
_atom_site_fract_z
_atom_type_partial_charge
C1    C     C_R   0.721222 0.345629 0.178478 0.554853
C2    C     C_R   0.278689 0.346274 0.821271 0.534433
C3    C     C_R   0.221221 0.845625 0.178476 0.541775
C4    C     C_R   0.778691 0.846269 0.821274 0.533127
C5    C     C_R   0.478955 0.165660 0.870182 -0.028140
C6    C     C_R   0.523043 0.164793 0.128875 -0.024533
C7    C     C_R   0.978964 0.665657 0.870176 -0.028133
C8    C     C_R   0.023052 0.664794 0.128869 -0.023087
C9    C     C_R   0.514172 0.259274 0.104269 -0.027757
C10   C     C_R   0.486178 0.260169 0.895397 -0.027855
C11   C     C_R   0.014191 0.759276 0.104261 -0.027067
C12   C     C_R   0.986195 0.760165 0.895389 -0.027899
C13   C     C_R   0.505872 0.259853 0.052206 0.004144
C14   C     C_R   0.495002 0.260370 0.947393 0.003204
C15   C     C_R   0.005893 0.759854 0.052198 0.004077
C16   C     C_R   0.995022 0.760367 0.947385 0.003239
C17   C     C_R   0.503815 0.165708 0.025598 0.033765
C18   C     C_R   0.499041 0.165976 0.973301 0.032400
C19   C     C_R   0.003830 0.665708 0.025592 0.033667
C20   C     C_R   0.999056 0.665974 0.973294 0.032435
C21   C     C_R   0.502121 0.352545 0.025812 -0.138418
C22   C     C_R   0.497033 0.352804 0.974445 -0.138080
C23   C     C_R   0.002149 0.852545 0.025803 -0.138320
C24   C     C_R   0.997061 0.852803 0.974436 -0.138043
C25   C     C_R   0.731495 0.983778 0.123944 0.018869
C26   C     C_R   0.277334 0.019001 0.879421 0.018933
C27   C     C_R   0.231496 0.483778 0.123943 0.018900
C28   C     C_R   0.777334 0.518999 0.879420 0.019154
C29   C     C_R   0.785539 0.970950 0.098607 -0.135118
C30   C     C_R   0.223529 0.991616 0.902222 -0.121992
C31   C     C_R   0.285541 0.470955 0.098606 -0.135283
C32   C     C_R   0.723529 0.491615 0.902220 -0.121916
C33   C     C_R   0.785587 0.963034 0.046751 -0.135892
C34   C     C_R   0.221994 0.972945 0.953218 -0.141063
C35   C     C_R   0.285588 0.463040 0.046749 -0.135813
C36   C     C_R   0.721994 0.472942 0.953217 -0.141132
C37   C     C_R   0.731916 0.972037 0.019541 0.014283
C38   C     C_R   0.273696 0.984132 0.982528 0.018177
C39   C     C_R   0.231917 0.472041 0.019539 0.014322
C40   C     C_R   0.773696 0.484127 0.982526 0.018142
C41   C     C_R   0.678282 0.987373 0.044906 -0.118732
C42   C     C_R   0.327365 0.012015 0.959840 -0.105439
C43   C     C_R   0.178283 0.487373 0.044905 -0.118718
C44   C     C_R   0.827365 0.512007 0.959838 -0.105388
C45   C     C_R   0.552888 0.157622 0.177910 0.539029
C46   C     C_R   0.447634 0.157755 0.821772 0.527895
C47   C     C_R   0.052891 0.657623 0.177907 0.539345
C48   C     C_R   0.947637 0.657754 0.821770 0.528461
C49   C     C_R   0.677936 0.991069 0.096537 -0.120195
C50   C     C_R   0.329124 0.028462 0.908596 -0.127815
C51   C     C_R   0.177937 0.491067 0.096536 -0.120164
C52   C     C_R   0.829124 0.528456 0.908595 -0.127804
C53   C     C_R   0.700184 0.873306 0.943568 -0.018043
C54   C     C_R   0.302439 0.878194 0.056986 -0.020714
C55   C     C_R   0.200183 0.373311 0.943566 -0.018025
C56   C     C_R   0.802436 0.378186 0.056983 -0.020377
C57   C     C_R   0.712896 0.841793 0.895202 -0.134757
C58   C     C_R   0.288522 0.843376 0.104650 -0.133044
C59   C     C_R   0.212894 0.341800 0.895199 -0.134547
C60   C     C_R   0.788517 0.343369 0.104646 -0.133442
C61   C     C_R   0.782298 0.981923 0.886269 -0.111900
C62   C     C_R   0.217013 0.981277 0.114407 -0.113747
C63   C     C_R   0.282296 0.481930 0.886266 -0.112096
C64   C     C_R   0.717011 0.481273 0.114404 -0.112034
C65   C     C_R   0.769207 0.016200 0.934364 0.004739
C66   C     C_R   0.230812 0.018131 0.067170 0.004979
C67   C     C_R   0.269206 0.516205 0.934361 0.004774
C68   C     C_R   0.730810 0.518126 0.067167 0.004538
C69   C     C_R   0.731991 0.956115 0.965011 0.025627
C70   C     C_R   0.270838 0.962349 0.036545 0.022778
C71   C     C_R   0.231992 0.456119 0.965009 0.025602
C72   C     C_R   0.770837 0.462344 0.036542 0.022741
C73   C     C_R   0.756464 0.892240 0.867494 -0.007879
C74   C     C_R   0.243772 0.891980 0.132553 -0.008882
C75   C     C_R   0.256461 0.392247 0.867491 -0.008105
C76   C     C_R   0.743769 0.391976 0.132551 -0.008392
C77   C     C_R   0.521919 0.168945 0.368713 0.014698
C78   C     C_R   0.470527 0.169148 0.628182 0.024174
C79   C     C_R   0.027477 0.669785 0.370897 0.025923
C80   C     C_R   0.973740 0.668302 0.629596 0.022579
C81   C     C_R   0.523409 0.262529 0.394654 -0.135497
C82   C     C_R   0.457784 0.258511 0.600992 -0.124321
C83   C     C_R   0.038223 0.759472 0.398544 -0.125489
C84   C     C_R   0.965891 0.759752 0.602865 -0.122948
C85   C     C_R   0.511757 0.265194 0.445395 -0.125118
C86   C     C_R   0.466726 0.260892 0.549979 -0.122469
C87   C     C_R   0.027826 0.761429 0.449373 -0.121030
C88   C     C_R   0.977455 0.762365 0.552239 -0.120099
C89   C     C_R   0.729678 0.007795 0.177377 0.541631
C90   C     C_R   0.280064 0.043694 0.826086 0.550248
C91   C     C_R   0.229678 0.507793 0.177377 0.537969
C92   C     C_R   0.780065 0.543694 0.826086 0.550828
C93   C     C_R   0.496036 0.175112 0.470571 0.031157
C94   C     C_R   0.490242 0.174993 0.525241 0.032107
C95   C     C_R   0.005258 0.674525 0.473267 0.034090
C96   C     C_R   0.998209 0.674222 0.527637 0.034406
C97   C     C_R   0.487507 0.084307 0.443220 -0.118153
C98   C     C_R   0.507527 0.088503 0.553095 -0.118360
C99   C     C_R   0.990088 0.587597 0.444953 -0.117167
C100  C     C_R   0.010735 0.585205 0.555144 -0.119608
C101  C     C_R   0.500776 0.081026 0.392757 -0.118470
C102  C     C_R   0.497083 0.085132 0.604119 -0.120914
C103  C     C_R   0.001486 0.584983 0.394128 -0.113014
C104  C     C_R   0.998217 0.582031 0.605766 -0.127391
C105  C     C_R   0.736947 0.976695 0.375848 0.041957
C106  C     C_R   0.264937 0.977211 0.624224 0.036211
C107  C     C_R   0.235927 0.476240 0.375342 0.038499
C108  C     C_R   0.754383 0.439801 0.631753 0.016256
C109  C     C_R   0.715306 0.884551 0.396599 0.009703
C110  C     C_R   0.283767 0.881333 0.605035 0.005946
C111  C     C_R   0.218338 0.379623 0.393756 0.006985
C112  C     C_R   0.796106 0.370547 0.609277 0.007199
C113  C     C_R   0.712921 0.876642 0.448614 -0.096559
C114  C     C_R   0.285658 0.869535 0.553045 -0.089196
C115  C     C_R   0.216796 0.366697 0.445651 -0.090091
C116  C     C_R   0.784939 0.338063 0.560207 -0.092804
C117  C     C_R   0.731897 0.958105 0.479106 0.017107
C118  C     C_R   0.269748 0.951417 0.521977 0.015714
C119  C     C_R   0.231988 0.448147 0.477381 0.015221
C120  C     C_R   0.732863 0.367544 0.535371 0.011568
C121  C     C_R   0.752976 0.048061 0.457834 -0.133539
C122  C     C_R   0.252867 0.045883 0.541763 -0.132086
C123  C     C_R   0.247954 0.543184 0.458336 -0.132525
C124  C     C_R   0.689030 0.424104 0.559835 -0.124326
C125  C     C_R   0.756598 0.056331 0.407072 -0.133606
C126  C     C_R   0.250014 0.058401 0.592372 -0.124536
C127  C     C_R   0.250358 0.556858 0.407825 -0.124119
C128  C     C_R   0.699787 0.460408 0.607485 -0.133223
C129  C     C_R   0.788174 0.980232 0.557222 -0.127769
C130  C     C_R   0.206402 0.957327 0.448242 -0.136359
C131  C     C_R   0.294294 0.454976 0.551752 -0.136324
C132  C     C_R   0.681004 0.288523 0.463580 -0.126540
C133  C     C_R   0.704506 0.306127 0.326930 0.553050
C134  C     C_R   0.278718 0.347488 0.678356 0.537644
C135  C     C_R   0.221322 0.848020 0.321542 0.536561
C136  C     C_R   0.778228 0.848645 0.678812 0.541327
C137  C     C_R   0.797979 0.956534 0.606440 -0.142077
C138  C     C_R   0.195547 0.935240 0.399032 -0.151825
C139  C     C_R   0.304539 0.434067 0.601106 -0.151414
C140  C     C_R   0.675072 0.274666 0.412604 -0.163631
C141  C     C_R   0.702131 0.869376 0.609478 -0.018717
C142  C     C_R   0.297865 0.873459 0.389786 -0.027417
C143  C     C_R   0.202951 0.369972 0.609128 -0.027582
C144  C     C_R   0.760606 0.385074 0.398396 -0.013449
C145  C     C_R   0.692400 0.894689 0.559726 -0.126878
C146  C     C_R   0.308234 0.895455 0.439874 -0.130889
C147  C     C_R   0.193175 0.390975 0.558908 -0.131587
C148  C     C_R   0.767214 0.396809 0.449669 -0.135109
C149  C     C_R   0.736573 0.945896 0.532971 0.023154
C150  C     C_R   0.262081 0.935243 0.469052 0.016774
C151  C     C_R   0.239270 0.431471 0.530279 0.017406
C152  C     C_R   0.727250 0.349192 0.482134 0.002961
C153  C     C_R   0.757233 0.895448 0.632321 0.011939
C154  C     C_R   0.240117 0.890102 0.369542 0.007497
C155  C     C_R   0.260089 0.388395 0.630111 0.008330
C156  C     C_R   0.713915 0.323610 0.379821 0.007812
C157  C     C_R   0.553026 0.159069 0.320931 0.528496
C158  C     C_R   0.445445 0.158702 0.678215 0.543562
C159  C     C_R   0.054132 0.659139 0.321499 0.545706
C160  C     C_R   0.945994 0.658602 0.678581 0.544960
C161  C     C_R   0.731564 0.003517 0.323474 0.524013
C162  C     C_R   0.268785 0.003693 0.676498 0.536668
C163  C     C_R   0.231386 0.503812 0.323340 0.529497
C164  C     C_R   0.767913 0.499939 0.677269 0.544792
C165  C     C_R   0.514072 0.072957 0.102845 -0.154966
C166  C     C_R   0.490758 0.073992 0.895336 -0.155138
C167  C     C_R   0.014080 0.572959 0.102839 -0.154179
C168  C     C_R   0.990765 0.573988 0.895331 -0.155012
C169  C     C_R   0.506502 0.071478 0.051281 -0.035646
C170  C     C_R   0.498112 0.072032 0.946929 -0.035446
C171  C     C_R   0.006511 0.571479 0.051275 -0.035686
C172  C     C_R   0.998122 0.572029 0.946923 -0.035506
C173  C     C_R   0.500987 0.977819 0.972730 -0.031060
C174  C     C_R   0.504625 0.977541 0.024865 -0.034514
C175  C     C_R   0.000993 0.477816 0.972725 -0.031054
C176  C     C_R   0.004632 0.477540 0.024859 -0.034294
Cr1   Cr    Cr6+3 0.756570 0.170940 0.251190 1.039179
Cr2   Cr    Cr6+3 0.243430 0.170940 0.748810 1.049959
Cr3   Cr    Cr6+3 0.256570 0.670940 0.251190 1.056496
Cr4   Cr    Cr6+3 0.743430 0.670940 0.748810 1.052750
Cr5   Cr    Cr6+3 0.623740 0.299110 0.249580 1.047341
Cr6   Cr    Cr6+3 0.376260 0.299110 0.750420 1.040619
Cr7   Cr    Cr6+3 0.123740 0.799110 0.249580 1.044642
Cr8   Cr    Cr6+3 0.876260 0.799110 0.750420 1.042761
Cr9   Cr    Cr6+3 0.625990 0.036240 0.250480 1.019375
Cr10  Cr    Cr6+3 0.374010 0.036240 0.749520 1.026675
Cr11  Cr    Cr6+3 0.125990 0.536240 0.250480 1.021166
Cr12  Cr    Cr6+3 0.874010 0.536240 0.749520 1.017406
H1    H     H_    0.488327 0.002500 0.874895 0.159373
H2    H     H_    0.518007 0.001218 0.122679 0.155377
H3    H     H_    0.988329 0.502495 0.874890 0.159582
H4    H     H_    0.018010 0.501220 0.122674 0.155022
H5    H     H_    0.813272 0.024625 0.863547 0.141118
H6    H     H_    0.184712 0.022066 0.137066 0.140256
H7    H     H_    0.313268 0.524633 0.863543 0.141026
H8    H     H_    0.684711 0.522064 0.137063 0.142417
H9    H     H_    0.636650 0.995862 0.024712 0.131072
H10   H     H_    0.367628 0.021324 0.981788 0.128891
H11   H     H_    0.136651 0.495860 0.024711 0.131028
H12   H     H_    0.867628 0.521314 0.981787 0.129020
H13   H     H_    0.635760 0.004246 0.114951 0.146113
H14   H     H_    0.370606 0.050847 0.891749 0.128485
H15   H     H_    0.135761 0.504240 0.114950 0.145954
H16   H     H_    0.870608 0.550838 0.891747 0.128574
H17   H     H_    0.539200 0.331755 0.376990 0.138205
H18   H     H_    0.436794 0.324361 0.618406 0.130737
H19   H     H_    0.058733 0.825820 0.381715 0.128726
H20   H     H_    0.946664 0.827376 0.620146 0.133489
H21   H     H_    0.527791 0.022403 0.535313 0.105310
H22   H     H_    0.472734 0.014734 0.461146 0.105868
H23   H     H_    0.028592 0.517167 0.537266 0.105765
H24   H     H_    0.970812 0.520722 0.462296 0.104809
H25   H     H_    0.507512 0.015552 0.624312 0.136300
H26   H     H_    0.497876 0.008258 0.373349 0.144076
H27   H     H_    0.004969 0.510794 0.625654 0.136543
H28   H     H_    0.992552 0.515154 0.373511 0.140414
H29   H     H_    0.518721 0.336528 0.465243 0.105171
H30   H     H_    0.452483 0.328388 0.529758 0.103236
H31   H     H_    0.040201 0.829306 0.470247 0.103270
H32   H     H_    0.967137 0.831879 0.531988 0.104620
H33   H     H_    0.823135 0.019782 0.537392 0.103745
H34   H     H_    0.170364 0.987997 0.470693 0.112129
H35   H     H_    0.330290 0.486248 0.529760 0.112184
H36   H     H_    0.650255 0.250951 0.488524 0.130801
H37   H     H_    0.840088 0.979652 0.622851 0.132274
H38   H     H_    0.150867 0.949081 0.384948 0.131349
H39   H     H_    0.348760 0.449347 0.615692 0.131360
H40   H     H_    0.640955 0.223813 0.398618 0.116308
H41   H     H_    0.697690 0.806021 0.465316 0.108947
H42   H     H_    0.297715 0.796973 0.536155 0.108719
H43   H     H_    0.205440 0.293679 0.461940 0.108270
H44   H     H_    0.817187 0.292415 0.539965 0.110364
H45   H     H_    0.651342 0.871707 0.541390 0.101521
H46   H     H_    0.351706 0.880618 0.456337 0.106893
H47   H     H_    0.150158 0.375081 0.541952 0.105320
H48   H     H_    0.802612 0.444762 0.464423 0.113697
H49   H     H_    0.767040 0.112417 0.480565 0.117256
H50   H     H_    0.240685 0.109459 0.517843 0.110597
H51   H     H_    0.259552 0.606467 0.482754 0.110519
H52   H     H_    0.648270 0.446233 0.540764 0.116471
H53   H     H_    0.772661 0.128128 0.392201 0.142091
H54   H     H_    0.237638 0.133338 0.606722 0.142321
H55   H     H_    0.261897 0.632248 0.394060 0.141540
H56   H     H_    0.666358 0.509873 0.624144 0.151483
H57   H     H_    0.493981 0.426566 0.956260 0.141981
H58   H     H_    0.503674 0.426130 0.044533 0.141642
H59   H     H_    0.994014 0.926564 0.956250 0.141972
H60   H     H_    0.003706 0.926130 0.044522 0.141555
H61   H     H_    0.827402 0.967085 0.118820 0.136352
H62   H     H_    0.182871 0.983640 0.880663 0.146784
H63   H     H_    0.327404 0.467093 0.118819 0.136341
H64   H     H_    0.682871 0.483642 0.880661 0.146730
H65   H     H_    0.690985 0.774323 0.880215 0.144999
H66   H     H_    0.310601 0.775317 0.118926 0.146983
H67   H     H_    0.190982 0.274331 0.880212 0.145188
H68   H     H_    0.810594 0.275307 0.118922 0.146030
H69   H     H_    0.827416 0.948887 0.027781 0.123040
H70   H     H_    0.180364 0.949433 0.969990 0.120960
H71   H     H_    0.327417 0.448896 0.027779 0.123026
H72   H     H_    0.680363 0.449431 0.969988 0.120872
O1    O     O_R   0.769900 0.064540 0.196060 -0.508264
O2    O     O_R   0.230100 0.064540 0.803940 -0.511197
O3    O     O_R   0.269900 0.564540 0.196060 -0.507399
O4    O     O_R   0.730100 0.564540 0.803940 -0.512116
O5    O     O_R   0.574760 0.239320 0.300850 -0.521126
O6    O     O_R   0.425240 0.239320 0.699150 -0.502219
O7    O     O_R   0.074760 0.739320 0.300850 -0.504213
O8    O     O_R   0.925240 0.739320 0.699150 -0.499464
O9    O     O_R   0.566290 0.069580 0.305400 -0.509781
O10   O     O_R   0.433710 0.069580 0.694600 -0.510763
O11   O     O_R   0.066290 0.569580 0.305400 -0.511829
O12   O     O_R   0.933710 0.569580 0.694600 -0.522428
O13   O     O_R   0.680760 0.993330 0.302620 -0.504877
O14   O     O_R   0.319240 0.993330 0.697380 -0.502267
O15   O     O_R   0.180760 0.493330 0.302620 -0.505738
O16   O     O_R   0.819240 0.493330 0.697380 -0.512784
O17   O     O_3   0.668770 0.168760 0.250420 -0.276281
O18   O     O_3   0.331230 0.168760 0.749580 -0.272678
O19   O     O_3   0.168770 0.668760 0.250420 -0.254279
O20   O     O_3   0.831230 0.668760 0.749580 -0.269253
O21   O     O_R   0.750800 0.274080 0.199250 -0.495856
O22   O     O_R   0.249200 0.274080 0.800750 -0.515642
O23   O     O_R   0.250800 0.774080 0.199250 -0.500378
O24   O     O_R   0.749200 0.774080 0.800750 -0.517560
O25   O     O_R   0.669990 0.371670 0.194150 -0.500365
O26   O     O_R   0.330010 0.371670 0.805850 -0.501927
O27   O     O_R   0.169990 0.871670 0.194150 -0.505413
O28   O     O_R   0.830010 0.871670 0.805850 -0.502491
O29   O     O_R   0.574600 0.238480 0.197800 -0.478790
O30   O     O_R   0.425400 0.238480 0.802200 -0.480852
O31   O     O_R   0.074600 0.738480 0.197800 -0.479018
O32   O     O_R   0.925400 0.738480 0.802200 -0.481171
O33   O     O_R   0.566130 0.068680 0.194240 -0.524449
O34   O     O_R   0.433870 0.068680 0.805760 -0.529351
O35   O     O_R   0.066130 0.568680 0.194240 -0.526606
O36   O     O_R   0.933870 0.568680 0.805760 -0.528633
O37   O     O_R   0.680610 0.992490 0.199570 -0.501926
O38   O     O_R   0.319390 0.992490 0.800430 -0.490594
O39   O     O_R   0.180610 0.492490 0.199570 -0.505899
O40   O     O_R   0.819390 0.492490 0.800430 -0.490670
O41   O     O_R   0.770060 0.065440 0.307230 -0.522648
O42   O     O_R   0.229940 0.065440 0.692770 -0.502534
O43   O     O_R   0.270060 0.565440 0.307230 -0.506360
O44   O     O_R   0.729940 0.565440 0.692770 -0.499574
O45   O     O_R   0.750960 0.274920 0.302300 -0.489349
O46   O     O_R   0.249040 0.274920 0.697700 -0.488023
O47   O     O_R   0.250960 0.774920 0.302300 -0.488269
O48   O     O_R   0.749040 0.774920 0.697700 -0.481745
O49   O     O_R   0.670160 0.372580 0.305320 -0.505035
O50   O     O_R   0.329840 0.372580 0.694680 -0.527192
O51   O     O_R   0.170160 0.872580 0.305320 -0.529530
O52   O     O_R   0.829840 0.872580 0.694680 -0.525716
C177  C     C_3   0.695913 0.793770 0.365194 -0.282253
C178  C     C_3   0.737677 0.701877 0.372303 -0.427175
H73   H     H_    0.784224 0.723220 0.362852 0.173083
H74   H     H_    0.736331 0.673924 0.411206 0.150182
H75   H     H_    0.723488 0.638267 0.347417 0.167883
H76   H     H_    0.649750 0.771821 0.375602 0.148201
H77   H     H_    0.695338 0.811981 0.325019 0.166453
C179  C     C_3   0.300463 0.795041 0.640482 -0.268703
C180  C     C_3   0.307579 0.689029 0.616846 -0.451303
H78   H     H_    0.266214 0.667141 0.596566 0.164831
H79   H     H_    0.346367 0.687319 0.591267 0.141967
H80   H     H_    0.315835 0.631912 0.646615 0.156217
H81   H     H_    0.342984 0.814704 0.659571 0.170672
H82   H     H_    0.265104 0.789018 0.669199 0.148109
C181  C     C_3   0.202502 0.293797 0.357602 -0.270647
C182  C     C_3   0.197383 0.187014 0.380267 -0.450585
H83   H     H_    0.239230 0.166077 0.400187 0.166704
H84   H     H_    0.158795 0.183377 0.405983 0.140388
H85   H     H_    0.189943 0.130268 0.350021 0.155351
H86   H     H_    0.159461 0.312726 0.339060 0.167248
H87   H     H_    0.237579 0.289519 0.328529 0.145409
C183  C     C_3   0.852449 0.335047 0.636449 -0.255176
C184  C     C_3   0.884780 0.242269 0.613868 -0.464684
H88   H     H_    0.853150 0.178059 0.607742 0.152470
H89   H     H_    0.906545 0.263296 0.578349 0.140829
H90   H     H_    0.920286 0.215856 0.639828 0.155134
H91   H     H_    0.884637 0.399523 0.638403 0.181650
H92   H     H_    0.839952 0.312533 0.674813 0.166161
C185  C     C_1   0.498591 0.880736 0.946053 0.232261
N1    N     N_1   0.496601 0.803474 0.924785 -0.255724
C186  C     C_1   0.507460 0.880192 0.050958 0.227463
N2    N     N_1   0.509756 0.802740 0.071777 -0.258535
C187  C     C_1   0.998593 0.380733 0.946048 0.232399
N3    N     N_1   0.996599 0.303472 0.924781 -0.255592
C188  C     C_1   0.007464 0.380192 0.050953 0.227456
N4    N     N_1   0.009758 0.302741 0.071773 -0.260345
C189  C     C_1   0.655751 0.814253 0.635068 0.205906
N5    N     N_1   0.618502 0.770101 0.655474 -0.300589
C190  C     C_1   0.346721 0.833001 0.360715 0.199784
N6    N     N_1   0.385949 0.800632 0.337484 -0.296650
C191  C     C_1   0.154108 0.328806 0.637559 0.198777
N7    N     N_1   0.114883 0.295859 0.660263 -0.300198
C192  C     C_1   0.801299 0.437739 0.365865 0.205590
N8    N     N_1   0.833936 0.480004 0.339838 -0.304021
C193  C     C_1   0.483335 0.356360 0.868459 0.214033
N9    N     N_1   0.481118 0.433166 0.847074 -0.282376
C194  C     C_1   0.514532 0.355070 0.131965 0.209636
N10   N     N_1   0.514761 0.431554 0.153962 -0.285260
C195  C     C_1   0.983358 0.856355 0.868450 0.213970
N11   N     N_1   0.981146 0.933160 0.847063 -0.282608
C196  C     C_1   0.014558 0.855075 0.131954 0.210695
N12   N     N_1   0.014795 0.931563 0.153948 -0.289002
C197  C     C_1   0.655090 0.817672 0.970305 0.169564
N13   N     N_1   0.618499 0.773512 0.991455 -0.294958
C198  C     C_1   0.347767 0.823899 0.029281 0.174002
N14   N     N_1   0.384220 0.780550 0.007125 -0.290005
C199  C     C_1   0.155091 0.317675 0.970303 0.169607
N15   N     N_1   0.118501 0.273513 0.991453 -0.295032
C200  C     C_1   0.847765 0.323893 0.029280 0.174039
N16   N     N_1   0.884220 0.280546 0.007124 -0.290112
C201  C     C_3   0.792281 0.119627 0.950830 -0.261455
C202  C     C_3   0.740997 0.196814 0.954045 -0.418664
H93   H     H_    0.759235 0.273787 0.961767 0.165888
H94   H     H_    0.716127 0.199902 0.918260 0.160347
H95   H     H_    0.709829 0.176431 0.984384 0.159658
H96   H     H_    0.815450 0.114256 0.987140 0.174897
H97   H     H_    0.825524 0.149435 0.923978 0.165965
C203  C     C_3   0.205024 0.120209 0.051896 -0.263703
C204  C     C_3   0.252874 0.202552 0.054879 -0.420823
H98   H     H_    0.231184 0.278048 0.050657 0.174114
H99   H     H_    0.275686 0.201067 0.091628 0.157478
H100  H     H_    0.286313 0.192079 0.024904 0.159029
H101  H     H_    0.186071 0.116482 0.013942 0.179341
H102  H     H_    0.167720 0.143193 0.076800 0.164849
C205  C     C_3   0.292280 0.619632 0.950827 -0.261453
C206  C     C_3   0.240996 0.696819 0.954042 -0.418635
H103  H     H_    0.259234 0.773791 0.961768 0.165927
H104  H     H_    0.216130 0.699913 0.918255 0.160182
H105  H     H_    0.209826 0.676431 0.984378 0.159800
H106  H     H_    0.315449 0.614262 0.987137 0.174981
H107  H     H_    0.325523 0.649440 0.923975 0.165950
C207  C     C_3   0.705025 0.620207 0.051893 -0.263624
C208  C     C_3   0.752877 0.702546 0.054877 -0.419961
H108  H     H_    0.731189 0.778044 0.050654 0.174031
H109  H     H_    0.775688 0.701059 0.091625 0.159317
H110  H     H_    0.786316 0.692071 0.024902 0.158812
H111  H     H_    0.686072 0.616481 0.013939 0.179155
H112  H     H_    0.667722 0.643192 0.076797 0.165471

loop_
_geom_bond_atom_site_label_1
_geom_bond_atom_site_label_2
_ccdc_geom_bond_type
C99   C103  A    
C7    C168  A    
C146  H46   S    
C144  C192  S    
C193  N9    T    
C158  O6    A    
C55   C59   A    
C142  C146  A    
C77   C101  A    
C19   C20   A    
C53   C69   A    
Cr1   O45   S    
C88   C96   A    
C89   O37   A    
C177  H76   S    
C108  C164  S    
Cr10  O38   S    
C37   C69   S    
C26   C50   A    
Cr4   O4    S    
C95   C99   A    
C29   C33   A    
C100  C104  A    
Cr7   O7    S    
C23   H60   S    
C138  H38   S    
C3    C74   S    
C9    C13   A    
C146  C150  A    
Cr3   O3    S    
C183  H91   S    
C10   C193  S    
C12   C16   A    
C56   C72   A    
C169  C174  A    
C179  H82   S    
C161  O41   A    
Cr8   O32   S    
C172  C175  A    
C141  C145  A    
C138  C154  A    
C6    C165  A    
C47   O31   A    
C166  C170  A    
C21   C22   A    
C41   C49   A    
C50   H14   S    
C165  C169  A    
C160  O12   A    
C27   C31   A    
C42   H10   S    
C184  H89   S    
C62   C66   A    
C167  C171  A    
C178  H73   S    
C98   C102  A    
C60   C76   A    
C176  C188  S    
C15   C19   A    
C205  H107  S    
C78   C82   A    
C102  H25   S    
C134  C155  S    
C54   C70   A    
C16   C20   A    
C165  H2    S    
C31   H63   S    
C92   O4    A    
C161  O13   A    
C134  O50   A    
C129  H33   S    
C20   C172  A    
Cr11  O19   S    
Cr2   O2    S    
C204  H98   S    
C128  H56   S    
C89   O1    A    
C62   H6    S    
C205  C206  S    
C130  C138  A    
C91   O3    A    
Cr12  O20   S    
C137  C153  A    
C145  H45   S    
C84   C88   A    
Cr9   O17   S    
Cr10  O14   S    
Cr7   O19   S    
C119  C123  A    
C26   C90   S    
C5    C46   S    
Cr4   O44   S    
C105  C125  A    
Cr2   O42   S    
Cr1   O1    S    
C7    C48   S    
C8    C47   S    
C107  C127  A    
C197  N13   T    
C1    O21   A    
C136  C153  S    
C66   C70   A    
Cr2   O22   S    
C58   H66   S    
C140  C156  A    
C207  C208  S    
Cr7   O31   S    
C184  H88   S    
C61   C65   A    
C142  C190  S    
C129  C137  A    
C159  O11   A    
C174  C186  S    
C33   H69   S    
C194  N10   T    
C45   O29   A    
C117  C149  S    
C103  H28   S    
C55   C71   A    
C2    C75   S    
C203  C204  S    
C26   C30   A    
C189  N5    T    
C190  N6    T    
Cr4   O20   S    
C6    C9    A    
Cr6   O18   S    
C129  C149  A    
C64   C68   A    
Cr2   O46   S    
C164  O44   A    
C11   C196  S    
C60   H68   S    
C86   H30   S    
C57   C73   A    
C136  O48   A    
C202  H93   S    
C137  H37   S    
C85   C93   A    
C78   C158  S    
C67   C205  S    
C206  H103  S    
C87   C95   A    
C126  H54   S    
C204  H100  S    
C23   C24   A    
C27   C91   S    
C47   O35   A    
C110  C114  A    
Cr9   O37   S    
C48   O36   A    
C44   C52   A    
C116  H44   S    
C79   C103  A    
C11   C15   A    
Cr11  O39   S    
C56   C200  S    
C27   C51   A    
C54   C198  S    
C123  H51   S    
C7    C12   A    
C98   H21   S    
C49   H13   S    
C140  H40   S    
C30   C34   A    
C80   C84   A    
C127  H55   S    
C41   H9    S    
C10   C14   A    
C183  C184  S    
C131  C151  A    
C108  C128  A    
C116  C120  A    
C202  H95   S    
C29   H61   S    
C12   C195  S    
C144  C156  A    
C147  C151  A    
C121  C125  A    
C162  O42   A    
C180  H78   S    
C84   H20   S    
C123  C127  A    
C139  C155  A    
C180  H80   S    
C157  O9    A    
C54   C58   A    
C17   C18   A    
C203  H102  S    
C5    C166  A    
C142  C154  A    
C4    C73   S    
Cr12  O36   S    
C42   C50   A    
C113  C117  A    
C107  C163  S    
C160  O8    A    
C115  C119  A    
C105  C161  S    
Cr9   O33   S    
C61   H5    S    
C82   H18   S    
Cr11  O35   S    
C58   C74   A    
C192  N8    T    
C105  C109  A    
C39   C71   S    
C40   C72   S    
C1    C76   S    
C107  C111  A    
C148  C152  A    
C141  C189  S    
C182  H83   S    
C113  H41   S    
C21   H58   S    
C135  O51   A    
Cr8   O20   S    
C171  C176  A    
C100  H23   S    
C13   C17   A    
C166  H1    S    
C14   C22   A    
C201  H97   S    
C134  O46   A    
C162  O14   A    
C136  O52   A    
C122  H50   S    
C63   C75   A    
C206  H105  S    
C64   H8    S    
Cr7   O27   S    
C4    O24   A    
C36   H72   S    
C57   H65   S    
C90   O2    A    
C131  C139  A    
Cr12  O40   S    
C183  H92   S    
C40   C44   A    
C56   C60   A    
C24   H59   S    
C131  H35   S    
C55   C199  S    
C81   C85   A    
Cr10  O18   S    
Cr11  O15   S    
C83   C87   A    
Cr4   O48   S    
C6    C45   S    
Cr5   O49   S    
C78   C102  A    
C133  C156  S    
C112  C116  A    
C9    C194  S    
C1    O25   A    
C191  N7    T    
C112  C183  S    
C2    O22   A    
C163  O15   A    
C3    O27   A    
Cr3   O23   S    
C135  C154  S    
C80   C104  A    
C110  C179  S    
C207  H111  S    
C79   C159  S    
C124  H52   S    
C208  H110  S    
C66   C203  S    
C80   C160  S    
C94   C98   A    
C178  H74   S    
C200  N16   T    
C34   H70   S    
C139  H39   S    
C53   C197  S    
C118  C150  S    
C95   C96   S    
C196  N12   T    
Cr4   O24   S    
Cr5   O25   S    
Cr9   O9    S    
C124  C128  A    
C178  H75   S    
C18   C170  A    
Cr11  O11   S    
C25   C29   A    
Cr5   O29   S    
C182  H85   S    
Cr3   O47   S    
C44   H12   S    
C133  O49   A    
C51   H15   S    
C177  H77   S    
C85   H29   S    
C130  H34   S    
C188  N4    T    
C53   C57   A    
C61   C73   A    
C82   C86   A    
C59   H67   S    
C33   C37   A    
C88   H32   S    
C68   C72   A    
C52   H16   S    
C35   C39   A    
C48   O32   A    
C8    C167  A    
C93   C97   A    
C28   C32   A    
C101  H26   S    
C179  H81   S    
Cr5   O5    S    
C38   C70   S    
C63   H7    S    
C32   C36   A    
C181  H87   S    
C65   C201  S    
C109  C177  S    
C132  H36   S    
C164  O16   A    
C104  H27   S    
C184  H90   S    
C173  C185  S    
C208  H108  S    
C132  C140  A    
C157  O5    A    
C106  C126  A    
C25   C89   S    
C158  O10   A    
C143  C155  A    
C181  C182  S    
C79   C83   A    
C43   C51   A    
C177  C178  S    
C65   C69   A    
C67   C71   A    
C106  C162  S    
Cr10  O34   S    
C25   C49   A    
C108  C112  A    
C168  C172  A    
C206  H104  S    
C77   C81   A    
C204  H99   S    
Cr7   O51   S    
C62   C74   A    
C145  C149  A    
C170  C173  A    
C147  H47   S    
C186  N2    T    
C93   C94   S    
C208  H109  S    
C14   C18   A    
C198  N14   T    
C144  C148  A    
C141  C153  A    
C135  O47   A    
C173  C174  A    
C143  C147  A    
C167  H4    S    
C4    O28   A    
C168  H3    S    
C92   O40   A    
C19   C171  A    
C38   C42   A    
C118  C122  A    
C181  H86   S    
C17   C169  A    
C159  O7    A    
C96   C100  A    
C46   O30   A    
Cr2   O18   S    
C117  C121  A    
C86   C94   A    
C175  C176  A    
C180  H79   S    
C83   H19   S    
Cr6   O50   S    
C125  H53   S    
C91   O39   A    
C115  H43   S    
Cr1   O17   S    
C2    O26   A    
C163  O43   A    
C15   C23   A    
Cr3   O19   S    
Cr8   O28   S    
C37   C41   A    
C99   H24   S    
C119  C151  S    
C63   C67   A    
C120  C152  S    
C97   H22   S    
C13   C21   A    
C35   H71   S    
C36   C40   A    
C182  H84   S    
C205  H106  S    
C39   C43   A    
Cr12  O16   S    
C30   H62   S    
C148  H48   S    
C122  C126  A    
C201  H96   S    
C130  C150  A    
Cr9   O13   S    
Cr6   O26   S    
Cr10  O10   S    
Cr1   O41   S    
C64   C76   A    
C28   C92   S    
Cr6   O30   S    
Cr3   O43   S    
C175  C187  S    
C133  O45   A    
C114  C118  A    
Cr1   O21   S    
C143  C191  S    
C87   H31   S    
Cr8   O8    S    
C59   C75   A    
C68   C207  S    
C81   H17   S    
C199  N15   T    
C106  C110  A    
C34   C38   A    
C45   O33   A    
C121  H49   S    
C114  H42   S    
C22   H57   S    
C43   H11   S    
C109  C113  A    
C46   O34   A    
C195  N11   T    
C32   H64   S    
C179  C180  S    
C5    C10   A    
C207  H112  S    
C201  C202  S    
Cr5   O17   S    
C28   C52   A    
C90   O38   A    
Cr6   O6    S    
C8    C11   A    
C132  C152  A    
C3    O23   A    
C202  H94   S    
C203  H101  S    
C31   C35   A    
C97   C101  A    
C16   C24   A    
C185  N1    T    
C111  C115  A    
Cr8   O52   S    
C111  C181  S    
C187  N3    T    
Cr12  O12   S    
C120  C124  A    
C77   C157  S    
