data_mof_unit_1040.cif
_audit_creation_date              2012-10-26T17:12:52-0400
_audit_creation_method            fapswitch 2.2
_symmetry_space_group_name_H-M    P1
_symmetry_Int_Tables_number       1
_space_group_crystal_system       triclinic
_cell_length_a                    27.811848
_cell_length_b                    18.618232
_cell_length_c                    16.846972
_cell_angle_alpha                 90.154874
_cell_angle_beta                  62.66892
_cell_angle_gamma                 90.153069
_cell_volume                      7749.63139928

loop_
_atom_site_label
_atom_site_type_symbol
_atom_type_description
_atom_site_fract_x
_atom_site_fract_y
_atom_site_fract_z
_atom_type_partial_charge
C1    C     C_R   0.292132 0.722350 0.331414 0.793493
C2    C     C_R   0.708002 0.277816 0.668446 0.797197
C3    C     C_R   0.708331 0.721798 0.668206 0.796519
C4    C     C_R   0.296312 0.268580 0.328281 0.802988
C5    C     C_R   0.792141 0.222361 0.331409 0.792980
C6    C     C_R   0.208426 0.778516 0.668044 0.804445
C7    C     C_R   0.208358 0.221761 0.668183 0.795938
C8    C     C_R   0.796303 0.768595 0.328283 0.802903
C9    C     C_R   0.412768 0.000130 0.458413 -0.059056
C10   C     C_R   0.585972 0.999762 0.547611 -0.053840
C11   C     C_R   0.913553 0.500062 0.454968 -0.058741
C12   C     C_R   0.086939 0.499640 0.543711 -0.054279
C13   C     C_R   0.576956 0.870484 0.566278 0.404116
C14   C     C_R   0.421569 0.129587 0.441167 0.398333
C15   C     C_R   0.422299 0.871022 0.437304 0.399368
C16   C     C_R   0.576732 0.129024 0.568812 0.407359
C17   C     C_R   0.077486 0.370462 0.563168 0.403943
C18   C     C_R   0.922271 0.629512 0.437421 0.399064
C19   C     C_R   0.922768 0.370892 0.434319 0.399494
C20   C     C_R   0.077864 0.628942 0.563988 0.389045
C21   C     C_R   0.222946 0.771401 0.950756 0.018975
C22   C     C_R   0.778850 0.230248 0.047517 0.017064
C23   C     C_R   0.793656 0.739402 0.034713 0.021305
C24   C     C_R   0.233373 0.207680 0.942218 0.020713
C25   C     C_R   0.722560 0.271662 0.951314 0.018177
C26   C     C_R   0.279014 0.730005 0.047288 0.017044
C27   C     C_R   0.293726 0.239422 0.034658 0.020168
C28   C     C_R   0.733282 0.707710 0.942295 0.020738
C29   C     C_R   0.279115 0.755349 0.904253 0.044619
C30   C     C_R   0.722644 0.245931 0.094089 0.045265
C31   C     C_R   0.742885 0.705086 0.079021 0.045025
C32   C     C_R   0.288134 0.229952 0.893972 0.045642
C33   C     C_R   0.778749 0.255798 0.904657 0.044645
C34   C     C_R   0.222787 0.745605 0.093699 0.045228
C35   C     C_R   0.242984 0.205029 0.078932 0.045713
C36   C     C_R   0.788059 0.729893 0.894033 0.044219
C37   C     C_R   0.307247 0.733950 0.952699 0.045872
C38   C     C_R   0.694551 0.267889 0.045875 0.047723
C39   C     C_R   0.710317 0.696886 0.035444 0.045053
C40   C     C_R   0.317101 0.251197 0.941462 0.043844
C41   C     C_R   0.806974 0.234235 0.952927 0.045851
C42   C     C_R   0.194772 0.767434 0.045293 0.047645
C43   C     C_R   0.210419 0.196819 0.035358 0.045128
C44   C     C_R   0.817053 0.751065 0.941497 0.045958
C45   C     C_R   0.140660 0.816599 0.947288 0.064616
C46   C     C_R   0.861152 0.185374 0.051034 0.069434
C47   C     C_R   0.868040 0.804703 0.043431 0.062691
C48   C     C_R   0.147034 0.172605 0.945342 0.067555
C49   C     C_R   0.640037 0.316192 0.948156 0.068585
C50   C     C_R   0.361275 0.685405 0.051068 0.068985
C51   C     C_R   0.368088 0.304699 0.043443 0.061488
C52   C     C_R   0.646941 0.672707 0.945407 0.067764
C53   C     C_R   0.116352 0.847294 0.897247 -0.122330
C54   C     C_R   0.885540 0.155311 0.101248 -0.128328
C55   C     C_R   0.888021 0.840218 0.097726 -0.125229
C56   C     C_R   0.118247 0.150927 0.897739 -0.123912
C57   C     C_R   0.615255 0.345668 0.898224 -0.127910
C58   C     C_R   0.385588 0.655311 0.101313 -0.127503
C59   C     C_R   0.388060 0.340189 0.097743 -0.123742
C60   C     C_R   0.618170 0.651018 0.897789 -0.124482
C61   C     C_R   0.139617 0.834319 0.805731 -0.271915
C62   C     C_R   0.863026 0.170314 0.192341 -0.271956
C63   C     C_R   0.864677 0.824487 0.189113 -0.287618
C64   C     C_R   0.138790 0.169601 0.808032 -0.278118
C65   C     C_R   0.637635 0.330544 0.807234 -0.289455
C66   C     C_R   0.363017 0.670251 0.192420 -0.272158
C67   C     C_R   0.364724 0.324442 0.189123 -0.288006
C68   C     C_R   0.638711 0.669708 0.808081 -0.277074
C69   C     C_R   0.189672 0.800828 0.761560 -0.127051
C70   C     C_R   0.811988 0.201509 0.237038 -0.125160
C71   C     C_R   0.821448 0.776466 0.229364 -0.128372
C72   C     C_R   0.190587 0.198585 0.761123 -0.120944
C73   C     C_R   0.688626 0.299262 0.762445 -0.122899
C74   C     C_R   0.311987 0.701489 0.237045 -0.125483
C75   C     C_R   0.321480 0.276439 0.229359 -0.127675
C76   C     C_R   0.690520 0.698659 0.761173 -0.121005
C77   C     C_R   0.220723 0.789925 0.807980 0.058233
C78   C     C_R   0.780941 0.211445 0.190400 0.060868
C79   C     C_R   0.799474 0.743873 0.176035 0.061322
C80   C     C_R   0.224582 0.203802 0.803651 0.059607
C81   C     C_R   0.719998 0.289666 0.808674 0.060960
C82   C     C_R   0.280981 0.711424 0.190319 0.061221
C83   C     C_R   0.299522 0.243852 0.176005 0.061928
C84   C     C_R   0.724501 0.703847 0.803718 0.059376
C85   C     C_R   0.196014 0.631772 0.529131 0.811566
C86   C     C_R   0.804167 0.368087 0.470234 0.821800
C87   C     C_R   0.804112 0.631814 0.470469 0.803809
C88   C     C_R   0.195870 0.368087 0.529680 0.839457
C89   C     C_R   0.695877 0.131872 0.529724 0.816985
C90   C     C_R   0.304132 0.868129 0.470506 0.819602
C91   C     C_R   0.304060 0.131787 0.470782 0.802666
C92   C     C_R   0.695828 0.868085 0.529921 0.840166
C93   C     C_R   0.194698 0.792197 0.902110 0.077302
C94   C     C_R   0.807111 0.209638 0.096196 0.076838
C95   C     C_R   0.820547 0.762672 0.084759 0.078186
C96   C     C_R   0.201564 0.195151 0.897097 0.073978
C97   C     C_R   0.694111 0.292018 0.902813 0.078072
C98   C     C_R   0.307210 0.709552 0.096115 0.076816
C99   C     C_R   0.320596 0.262681 0.084735 0.076668
C100  C     C_R   0.701473 0.695220 0.897169 0.074264
C101  C     C_R   0.113034 0.809891 0.040289 -0.193094
C102  C     C_R   0.888773 0.191708 0.957889 -0.185321
C103  C     C_R   0.893590 0.808909 0.949303 -0.187502
C104  C     C_R   0.123476 0.172192 0.039226 -0.179457
C105  C     C_R   0.612691 0.310240 0.041268 -0.194100
C106  C     C_R   0.389031 0.691878 0.957974 -0.185074
C107  C     C_R   0.393682 0.308909 0.949333 -0.189822
C108  C     C_R   0.623372 0.672305 0.039293 -0.179306
C109  C     C_R   0.139284 0.785948 0.088186 -0.213859
C110  C     C_R   0.862534 0.215795 0.909955 -0.206469
C111  C     C_R   0.868564 0.783441 0.899626 -0.207895
C112  C     C_R   0.154739 0.182041 0.083171 -0.214257
C113  C     C_R   0.639142 0.286758 0.089020 -0.214136
C114  C     C_R   0.362868 0.715828 0.909907 -0.206230
C115  C     C_R   0.368575 0.283690 0.899639 -0.210801
C116  C     C_R   0.654629 0.682148 0.083253 -0.214089
C117  C     C_R   0.276960 0.779751 0.763711 -0.179660
C118  C     C_R   0.724587 0.220287 0.234477 -0.180144
C119  C     C_R   0.757364 0.692403 0.209309 -0.185944
C120  C     C_R   0.280981 0.215032 0.756148 -0.180819
C121  C     C_R   0.776342 0.280325 0.764310 -0.180704
C122  C     C_R   0.224631 0.720363 0.234281 -0.180443
C123  C     C_R   0.257441 0.192349 0.209244 -0.186134
C124  C     C_R   0.780899 0.715013 0.756216 -0.180597
C125  C     C_R   0.305448 0.762938 0.810436 -0.208432
C126  C     C_R   0.696134 0.237027 0.187724 -0.210626
C127  C     C_R   0.727453 0.677172 0.164387 -0.217198
C128  C     C_R   0.311741 0.229608 0.800126 -0.211118
C129  C     C_R   0.804998 0.263811 0.810899 -0.208748
C130  C     C_R   0.196232 0.736973 0.187383 -0.210597
C131  C     C_R   0.227563 0.177076 0.164279 -0.217379
C132  C     C_R   0.811658 0.729555 0.800188 -0.210480
C133  C     C_R   0.928593 0.899425 0.064238 0.803822
C134  C     C_R   0.072528 0.099210 0.934901 0.802302
C135  C     C_R   0.071960 0.900380 0.934985 0.805265
C136  C     C_R   0.928723 0.100424 0.064464 0.805210
C137  C     C_R   0.428594 0.399431 0.064249 0.803999
C138  C     C_R   0.572499 0.599240 0.934922 0.802471
C139  C     C_R   0.571568 0.399886 0.935309 0.805312
C140  C     C_R   0.428739 0.600421 0.064476 0.804895
C141  C     C_R   0.039437 0.630087 0.531642 0.028639
C142  C     C_R   0.961530 0.369771 0.466139 -0.001464
C143  C     C_R   0.961111 0.630348 0.468937 0.017309
C144  C     C_R   0.038939 0.369553 0.530798 -0.000296
C145  C     C_R   0.537748 0.130164 0.537525 0.016730
C146  C     C_R   0.460663 0.869885 0.469972 -0.001615
C147  C     C_R   0.459746 0.130421 0.474068 0.017669
C148  C     C_R   0.538023 0.869605 0.534729 -0.000549
C149  C     C_R   0.018552 0.695145 0.518614 -0.198834
C150  C     C_R   0.981852 0.304696 0.480415 -0.202183
C151  C     C_R   0.981399 0.695305 0.484224 -0.209604
C152  C     C_R   0.018467 0.304585 0.515936 -0.201137
C153  C     C_R   0.516775 0.195211 0.524650 -0.205029
C154  C     C_R   0.481105 0.804806 0.483979 -0.201811
C155  C     C_R   0.479806 0.195373 0.489876 -0.207852
C156  C     C_R   0.517706 0.804646 0.519524 -0.201939
C157  C     C_R   0.979855 0.565110 0.485847 0.004749
C158  C     C_R   0.020769 0.434737 0.512575 0.011054
C159  C     C_R   0.020998 0.564996 0.513022 0.004497
C160  C     C_R   0.979918 0.434853 0.484769 0.011312
C161  C     C_R   0.478320 0.065187 0.491260 0.005816
C162  C     C_R   0.519512 0.934823 0.517261 0.011601
C163  C     C_R   0.519318 0.065080 0.518777 0.002328
C164  C     C_R   0.478710 0.934939 0.489339 0.011240
C165  C     C_R   0.457402 0.000106 0.477645 -0.063857
C166  C     C_R   0.540710 0.999877 0.530151 -0.064217
C167  C     C_R   0.958635 0.500026 0.473003 -0.063372
C168  C     C_R   0.042096 0.499783 0.525137 -0.063962
C169  C     C_R   0.390720 0.934099 0.448321 -0.028945
C170  C     C_R   0.608629 0.065783 0.555982 -0.052524
C171  C     C_R   0.608599 0.933681 0.555393 -0.025524
C172  C     C_R   0.390405 0.066178 0.449896 -0.049264
C173  C     C_R   0.891172 0.434017 0.445801 -0.029389
C174  C     C_R   0.109391 0.565611 0.552667 -0.057228
C175  C     C_R   0.109140 0.433610 0.552682 -0.025499
C176  C     C_R   0.890945 0.566126 0.447108 -0.048886
C177  C     C_R   0.338094 0.934196 0.452122 -0.105980
C178  C     C_R   0.661923 0.065709 0.549215 -0.113536
C179  C     C_R   0.661799 0.934003 0.549370 -0.109946
C180  C     C_R   0.337987 0.065845 0.452717 -0.100196
C181  C     C_R   0.838196 0.434140 0.451088 -0.106383
C182  C     C_R   0.162190 0.565565 0.547828 -0.114697
C183  C     C_R   0.161947 0.433960 0.548321 -0.109652
C184  C     C_R   0.838117 0.565838 0.451601 -0.100362
C185  C     C_R   0.313530 0.999958 0.452883 -0.288793
C186  C     C_R   0.686766 0.999924 0.547329 -0.282363
C187  C     C_R   0.813459 0.499933 0.452516 -0.287996
C188  C     C_R   0.186774 0.499837 0.546943 -0.281451
Cu1   Cu    Cu3+1 0.209920 0.785290 0.495070 0.961737
Cu2   Cu    Cu3+1 0.790080 0.214710 0.504930 0.968700
Cu3   Cu    Cu3+1 0.790080 0.785290 0.504930 0.965858
Cu4   Cu    Cu3+1 0.209920 0.214710 0.495070 0.967426
Cu5   Cu    Cu3+1 0.709920 0.285290 0.495070 0.965819
Cu6   Cu    Cu3+1 0.290080 0.714710 0.504930 0.968178
Cu7   Cu    Cu3+1 0.290080 0.285290 0.504930 0.965600
Cu8   Cu    Cu3+1 0.709920 0.714710 0.495070 0.967964
Cu9   Cu    Cu3+1 0.495240 0.500000 0.924150 0.932970
Cu10  Cu    Cu3+1 0.504760 0.500000 0.075850 0.926804
Cu11  Cu    Cu3+1 0.995240 0.000000 0.924150 0.929143
Cu12  Cu    Cu3+1 0.004760 1.000000 0.075850 0.926327
H1    H     H_    0.531713 0.753588 0.531654 0.171311
H2    H     H_    0.465573 0.246445 0.478282 0.176556
H3    H     H_    0.467356 0.753856 0.470567 0.171768
H4    H     H_    0.530472 0.246189 0.538079 0.178143
H5    H     H_    0.032251 0.253540 0.528559 0.171253
H6    H     H_    0.967072 0.746376 0.472842 0.176876
H7    H     H_    0.967876 0.253732 0.467500 0.171683
H8    H     H_    0.032331 0.746108 0.531940 0.175870
H9    H     H_    0.273143 0.999864 0.458469 0.187854
H10   H     H_    0.727683 0.000021 0.539405 0.189082
H11   H     H_    0.772797 0.499851 0.459291 0.188172
H12   H     H_    0.227392 0.499944 0.540361 0.188859
H13   H     H_    0.119498 0.852708 0.767775 0.188305
H14   H     H_    0.884407 0.154838 0.229559 0.193068
H15   H     H_    0.878978 0.852433 0.230673 0.188887
H16   H     H_    0.114897 0.159057 0.773421 0.190544
H17   H     H_    0.616091 0.345791 0.770196 0.191603
H18   H     H_    0.384355 0.654714 0.229687 0.193216
H19   H     H_    0.379049 0.352355 0.230676 0.188838
H20   H     H_    0.614818 0.659176 0.773467 0.190514
H21   H     H_    0.070191 0.820610 0.077088 0.168161
H22   H     H_    0.931616 0.180610 0.920957 0.155214
H23   H     H_    0.933861 0.830093 0.911450 0.172049
H24   H     H_    0.080355 0.166617 0.080431 0.161704
H25   H     H_    0.569862 0.321030 0.078295 0.167318
H26   H     H_    0.431918 0.680988 0.921210 0.154936
H27   H     H_    0.434184 0.329511 0.911585 0.174189
H28   H     H_    0.580248 0.666730 0.080479 0.161548
H29   H     H_    0.114717 0.783887 0.159371 0.139331
H30   H     H_    0.887223 0.218030 0.838708 0.131442
H31   H     H_    0.889934 0.792210 0.828495 0.134066
H32   H     H_    0.134124 0.180989 0.155414 0.139810
H33   H     H_    0.614790 0.285321 0.160292 0.139576
H34   H     H_    0.387712 0.718303 0.838724 0.131317
H35   H     H_    0.389948 0.292448 0.828514 0.136823
H36   H     H_    0.634009 0.681109 0.155496 0.139730
H37   H     H_    0.300504 0.788198 0.692682 0.170537
H38   H     H_    0.700977 0.210904 0.305292 0.171041
H39   H     H_    0.746676 0.661756 0.269107 0.176423
H40   H     H_    0.302974 0.210398 0.684397 0.174943
H41   H     H_    0.799803 0.288997 0.693321 0.170981
H42   H     H_    0.200977 0.711177 0.305127 0.170889
H43   H     H_    0.246755 0.161710 0.269049 0.176365
H44   H     H_    0.802896 0.710347 0.684471 0.175172
H45   H     H_    0.348431 0.756892 0.770244 0.136034
H46   H     H_    0.653012 0.241648 0.227681 0.135504
H47   H     H_    0.693650 0.640522 0.195609 0.142144
H48   H     H_    0.354470 0.238290 0.758675 0.138311
H49   H     H_    0.848036 0.258341 0.770714 0.136065
H50   H     H_    0.153126 0.741827 0.227305 0.135480
H51   H     H_    0.193785 0.140383 0.195464 0.142078
H52   H     H_    0.854384 0.738214 0.758715 0.139503
O1    O     O_R   0.255040 0.869590 0.478480 -0.596562
O2    O     O_R   0.744960 0.130410 0.521520 -0.593175
O3    O     O_R   0.744960 0.869590 0.521520 -0.593804
O4    O     O_R   0.255040 0.130410 0.478480 -0.602873
O5    O     O_R   0.755040 0.369590 0.478480 -0.595631
O6    O     O_R   0.244960 0.630410 0.521520 -0.591903
O7    O     O_R   0.244960 0.369590 0.521520 -0.593556
O8    O     O_R   0.755040 0.630410 0.478480 -0.603042
O9    O     O_R   0.182050 0.796550 0.624440 -0.576274
O10   O     O_R   0.817950 0.203450 0.375560 -0.570689
O11   O     O_R   0.817950 0.796550 0.375560 -0.569020
O12   O     O_R   0.182050 0.203450 0.624440 -0.571880
O13   O     O_R   0.682050 0.296550 0.624440 -0.575044
O14   O     O_R   0.317950 0.703450 0.375560 -0.571281
O15   O     O_R   0.317950 0.296550 0.375560 -0.569458
O16   O     O_R   0.682050 0.703450 0.624440 -0.570840
O17   O     O_R   0.250530 0.763330 0.367210 -0.597359
O18   O     O_R   0.749470 0.236670 0.632790 -0.597780
O19   O     O_R   0.749470 0.763330 0.632790 -0.600015
O20   O     O_R   0.250530 0.236670 0.367210 -0.602524
O21   O     O_R   0.750530 0.263330 0.367210 -0.597542
O22   O     O_R   0.249470 0.736670 0.632790 -0.598611
O23   O     O_R   0.249470 0.263330 0.632790 -0.599694
O24   O     O_R   0.750530 0.736670 0.367210 -0.602696
O25   O     O_R   0.177260 0.690030 0.513710 -0.540773
O26   O     O_R   0.822740 0.309970 0.486290 -0.535275
O27   O     O_R   0.822740 0.690030 0.486290 -0.540922
O28   O     O_R   0.177260 0.309970 0.513710 -0.521769
O29   O     O_R   0.677260 0.190030 0.513710 -0.540083
O30   O     O_R   0.322740 0.809970 0.486290 -0.535564
O31   O     O_R   0.322740 0.190030 0.486290 -0.540948
O32   O     O_R   0.677260 0.809970 0.513710 -0.521793
O33   O     O_R   0.051640 0.926880 0.885090 -0.588552
O34   O     O_R   0.948360 0.073120 0.114910 -0.585713
O35   O     O_R   0.948360 0.926880 0.114910 -0.588659
O36   O     O_R   0.051640 0.073120 0.885090 -0.585452
O37   O     O_R   0.551640 0.426880 0.885090 -0.586104
O38   O     O_R   0.448360 0.573120 0.114910 -0.585836
O39   O     O_R   0.448360 0.426880 0.114910 -0.589306
O40   O     O_R   0.551640 0.573120 0.885090 -0.585070
O41   O     O_R   0.940620 0.926560 0.986760 -0.588349
O42   O     O_R   0.059380 0.073440 0.013240 -0.589543
O43   O     O_R   0.059380 0.926560 0.013240 -0.585167
O44   O     O_R   0.940620 0.073440 0.986760 -0.583521
O45   O     O_R   0.440620 0.426560 0.986760 -0.588108
O46   O     O_R   0.559380 0.573440 0.013240 -0.589318
O47   O     O_R   0.559380 0.426560 0.013240 -0.584985
O48   O     O_R   0.440620 0.573440 0.986760 -0.583753
O49   O     O_3   0.581493 0.810924 0.611493 -0.594722
C189  C     C_3   0.542308 0.813724 0.702429 0.040424
H53   H     H_    0.527806 0.757957 0.723467 0.162341
H54   H     H_    0.505741 0.846226 0.715143 0.122497
C190  C     C_3   0.568068 0.841709 0.759674 -0.337217
H55   H     H_    0.605981 0.811656 0.743015 0.229941
H56   H     H_    0.578407 0.899458 0.744912 0.207395
C191  C     C_3   0.529878 0.832936 0.859197 -0.918646
H57   H     H_    0.491637 0.862751 0.877727 0.257992
H58   H     H_    0.549439 0.854526 0.898787 0.260741
H59   H     H_    0.520481 0.775230 0.875991 0.249132
O50   O     O_3   0.418823 0.189016 0.394205 -0.574442
C192  C     C_3   0.447149 0.176058 0.301014 0.095674
H60   H     H_    0.420341 0.190841 0.271003 0.152373
H61   H     H_    0.458870 0.118767 0.282273 0.078114
C193  C     C_3   0.498254 0.222569 0.259441 -0.389420
H62   H     H_    0.524843 0.209011 0.290276 0.213671
H63   H     H_    0.520790 0.210599 0.186806 0.175182
C194  C     C_3   0.484854 0.302648 0.271996 -0.759425
H64   H     H_    0.461572 0.317883 0.235989 0.242841
H65   H     H_    0.522772 0.334591 0.244731 0.212028
H66   H     H_    0.460958 0.316088 0.343934 0.268263
O51   O     O_3   0.418751 0.811979 0.390025 -0.594334
C195  C     C_3   0.456103 0.818638 0.298423 0.048218
H67   H     H_    0.472766 0.764260 0.273917 0.163654
H68   H     H_    0.491535 0.853952 0.285251 0.121796
C196  C     C_3   0.427214 0.845144 0.245496 -0.337691
H69   H     H_    0.389842 0.813118 0.264087 0.232319
H70   H     H_    0.415520 0.902305 0.262267 0.206031
C197  C     C_3   0.463295 0.838339 0.144957 -0.918649
H71   H     H_    0.500905 0.870327 0.124390 0.255120
H72   H     H_    0.441358 0.858656 0.108697 0.261724
H73   H     H_    0.474054 0.781183 0.126178 0.252597
O52   O     O_3   0.580725 0.188966 0.614720 -0.598030
C198  C     C_3   0.564556 0.171952 0.705381 0.064491
H74   H     H_    0.581660 0.213800 0.732338 0.172355
H75   H     H_    0.581060 0.119774 0.714088 0.124229
C199  C     C_3   0.502693 0.173145 0.760061 -0.375173
H76   H     H_    0.487043 0.225773 0.751124 0.221323
H77   H     H_    0.484741 0.130137 0.736085 0.216409
C200  C     C_3   0.485132 0.161371 0.859211 -0.907794
H78   H     H_    0.500837 0.109293 0.869530 0.255447
H79   H     H_    0.440264 0.160326 0.896647 0.268942
H80   H     H_    0.500414 0.205591 0.886013 0.249686
O53   O     O_3   0.081300 0.311133 0.609411 -0.594630
C201  C     C_3   0.041955 0.314950 0.700188 0.040849
H81   H     H_    0.026186 0.259690 0.721508 0.162048
H82   H     H_    0.006178 0.349023 0.712451 0.121596
C202  C     C_3   0.068073 0.341285 0.757599 -0.336841
H83   H     H_    0.105278 0.309700 0.741384 0.230772
H84   H     H_    0.079681 0.398671 0.742531 0.206516
C203  C     C_3   0.029514 0.333367 0.857092 -0.919400
H85   H     H_    0.991960 0.364696 0.875200 0.257587
H86   H     H_    0.049376 0.353753 0.896781 0.260834
H87   H     H_    0.018863 0.275958 0.874190 0.249426
O54   O     O_3   0.918654 0.689074 0.391446 -0.574767
C204  C     C_3   0.946480 0.676713 0.298092 0.094437
H88   H     H_    0.919497 0.692536 0.268812 0.153301
H89   H     H_    0.957620 0.619379 0.278696 0.078087
C205  C     C_3   0.997920 0.722580 0.256310 -0.389598
H90   H     H_    0.024729 0.708013 0.286373 0.213325
H91   H     H_    0.020019 0.711022 0.183528 0.175998
C206  C     C_3   0.985140 0.802800 0.269821 -0.760434
H92   H     H_    0.961947 0.819100 0.234070 0.243641
H93   H     H_    0.023288 0.834226 0.242864 0.212187
H94   H     H_    0.961388 0.815824 0.341897 0.267985
O55   O     O_3   0.918527 0.311632 0.387999 -0.594387
C207  C     C_3   0.955642 0.317438 0.296185 0.047414
H95   H     H_    0.971212 0.262593 0.271932 0.164030
H96   H     H_    0.991792 0.351465 0.282375 0.122099
C208  C     C_3   0.926891 0.345340 0.243655 -0.338520
H97   H     H_    0.888851 0.314674 0.262983 0.231676
H98   H     H_    0.916367 0.402848 0.260031 0.205968
C209  C     C_3   0.962450 0.337679 0.143064 -0.917597
H99   H     H_    0.000706 0.368332 0.121773 0.254988
H100  H     H_    0.940645 0.359005 0.107078 0.261599
H101  H     H_    0.972046 0.280227 0.124701 0.252637
O56   O     O_3   0.079294 0.687502 0.614033 -0.598282
C210  C     C_3   0.065886 0.665891 0.702314 0.078439
H102  H     H_    0.103672 0.652040 0.706006 0.146313
H103  H     H_    0.037887 0.618683 0.725146 0.120871
C211  C     C_3   0.037795 0.728119 0.766060 -0.323847
H104  H     H_    0.062560 0.777470 0.740969 0.232140
H105  H     H_    0.997859 0.738111 0.768073 0.205839
C212  C     C_3   0.029450 0.712086 0.860390 -0.926119
H106  H     H_    0.002185 0.665084 0.888405 0.258194
H107  H     H_    0.010881 0.759256 0.904214 0.246358
H108  H     H_    0.068832 0.700757 0.859714 0.261238

loop_
_geom_bond_atom_site_label_1
_geom_bond_atom_site_label_2
_ccdc_geom_bond_type
C4    O20   A    
C204  H88   S    
C126  H46   S    
C9    C169  A    
C34   C42   A    
C15   O51   S    
C154  H3    S    
C181  C187  A    
C114  H34   S    
Cu9   O45   S    
O49   C189  S    
C27   C99   A    
C85   C182  S    
C170  C178  A    
Cu1   O17   S    
C68   H20   S    
C42   C109  A    
C24   C96   A    
C90   O30   A    
C101  H21   S    
C52   C108  A    
C62   C70   A    
Cu3   Cu8   S    
C110  H30   S    
C103  H23   S    
Cu1   Cu6   S    
C131  H51   S    
C195  H67   S    
Cu4   O4    S    
C134  O36   A    
C135  O33   A    
C124  H44   S    
C155  H2    S    
C147  C155  A    
C191  H59   S    
C143  C151  A    
C90   C177  S    
C117  H37   S    
Cu11  Cu12  S    
C11   C167  A    
C82   C98   A    
C76   C84   A    
C73   C81   A    
C207  H95   S    
C161  C163  A    
C162  C164  A    
Cu11  O33   S    
C129  H49   S    
Cu6   O22   S    
C197  H71   S    
O51   C195  S    
C84   C100  A    
Cu4   Cu7   S    
C140  O48   A    
C57   C65   A    
C198  H75   S    
C37   C114  A    
C108  H28   S    
C27   C35   A    
C10   C171  A    
C55   C133  S    
C21   C29   A    
C81   C121  A    
C193  H62   S    
C23   C31   A    
Cu4   O12   S    
C86   O5    A    
C5    C70   S    
C146  C154  A    
Cu9   O40   S    
C203  H85   S    
C8    O24   A    
C63   C71   A    
C204  C205  S    
C185  H9    S    
C36   C44   A    
C5    O21   A    
C139  O37   A    
C102  H22   S    
C12   C174  A    
C58   C140  S    
C176  C184  A    
C8    C71   S    
Cu5   O29   S    
C3    O16   A    
C48   C96   A    
Cu12  O42   S    
Cu7   O7    S    
Cu8   O32   S    
C56   C134  S    
C148  C162  A    
C183  C188  A    
C65   H17   S    
C188  H12   S    
C108  C116  A    
C18   O54   S    
C78   C94   A    
C195  C196  S    
C23   C95   A    
C49   C97   A    
C21   C42   A    
C22   C41   A    
C92   O3    A    
C51   C107  A    
C24   C43   A    
Cu1   O1    S    
O56   C210  S    
C82   C122  A    
C207  C208  S    
C161  C165  A    
C17   C175  A    
C60   C138  S    
C212  H107  S    
C18   C176  A    
C6    C69   S    
C194  H65   S    
C202  H83   S    
C29   C125  A    
C111  H31   S    
C69   C77   A    
Cu6   O14   S    
C31   C127  A    
C45   C93   A    
C174  C182  A    
C71   C79   A    
C179  C186  A    
C4    O15   A    
C121  H41   S    
C30   C38   A    
C11   C176  A    
C21   C93   A    
C193  C194  S    
C1    C74   S    
C193  H63   S    
C18   C143  A    
C78   C118  A    
C149  C151  A    
C192  H61   S    
C1    O17   A    
C66   C74   A    
C203  H87   S    
C49   C57   A    
O50   C192  S    
C124  C132  A    
C135  O43   A    
C209  H99   S    
C136  O44   A    
C88   O7    A    
C59   C67   A    
C53   C61   A    
C141  C159  A    
C20   C174  A    
C190  H56   S    
C55   C63   A    
C86   C181  S    
C56   C64   A    
C91   O31   A    
C105  H25   S    
C138  O46   A    
C35   C43   A    
Cu10  O46   S    
C45   C53   A    
C22   C94   A    
C171  C179  A    
C61   H13   S    
Cu2   O18   S    
C156  H1    S    
C149  H8    S    
C169  C177  A    
C205  H90   S    
C191  H58   S    
C16   O52   S    
C200  H79   S    
C189  H54   S    
C50   C98   A    
C65   C73   A    
C7    C72   S    
C104  C112  A    
O52   C198  S    
C210  C211  S    
C145  C163  A    
C187  H11   S    
C146  C164  A    
C14   C147  A    
C52   C100  A    
C198  H74   S    
C79   C119  A    
C16   C145  A    
C209  H101  S    
C178  C186  A    
C14   O50   S    
C134  O42   A    
C25   C38   A    
C201  H82   S    
C46   C94   A    
C27   C40   A    
C10   C166  A    
C208  C209  S    
C91   C180  S    
C182  C188  A    
C89   C178  S    
C28   C36   A    
C2    C73   S    
C25   C97   A    
Cu9   O37   S    
C190  H55   S    
C202  C203  S    
C199  H77   S    
C89   O2    A    
Cu7   O23   S    
C206  H94   S    
Cu8   O16   S    
C67   C75   A    
C205  H91   S    
C201  C202  S    
C50   C106  A    
C22   C30   A    
C20   C141  A    
C15   C146  A    
C68   C76   A    
C199  C200  S    
Cu4   O20   S    
C184  C187  A    
C41   C110  A    
C83   C123  A    
C32   C128  A    
C67   H19   S    
C72   C80   A    
C118  H38   S    
C86   O26   A    
Cu9   Cu10  S    
C6    O22   A    
C137  O45   A    
C140  O38   A    
C13   C171  A    
C17   O53   S    
C157  C159  A    
Cu11  O41   S    
Cu6   O30   S    
Cu3   O19   S    
C117  C125  A    
C104  H24   S    
C205  C206  S    
C25   C33   A    
C119  C127  A    
C211  H104  S    
C62   H14   S    
C125  H45   S    
C157  C167  A    
C207  H96   S    
C158  C168  A    
C210  H102  S    
C113  H33   S    
Cu11  O36   S    
Cu12  O35   S    
C197  H72   S    
C164  C165  A    
C40   C115  A    
C101  C109  A    
C208  H97   S    
C177  C185  A    
C57   C139  S    
C103  C111  A    
C4    C75   S    
C138  O40   A    
Cu2   Cu5   S    
C162  C166  A    
C109  H29   S    
C1    O14   A    
C197  H73   S    
C203  H86   S    
Cu5   O5    S    
C206  H92   S    
C19   O55   S    
C153  C155  A    
Cu7   O15   S    
C154  C156  A    
Cu8   O24   S    
C172  C180  A    
C173  C181  A    
C204  H89   S    
C83   C99   A    
C158  C160  A    
C74   C82   A    
C123  H43   S    
C2    O18   A    
C47   C103  A    
C141  C149  A    
C50   C58   A    
C163  C166  A    
C136  O34   A    
C147  C161  A    
C38   C113  A    
C49   C105  A    
C54   C62   A    
C28   C39   A    
Cu3   O3    S    
C23   C44   A    
C19   C173  A    
C79   C95   A    
C92   C179  S    
C211  C212  S    
C77   C117  A    
C116  H36   S    
Cu1   O9    S    
C87   O27   A    
C8    O11   A    
C88   O28   A    
Cu3   O27   S    
C45   C101  A    
C120  H40   S    
C19   C142  A    
C17   C144  A    
C5    O10   A    
C53   C135  S    
C102  C110  A    
C127  H47   S    
C35   C131  A    
C212  H106  S    
C33   C129  A    
C36   C132  A    
C123  C131  A    
C121  C129  A    
C87   O8    A    
C198  C199  S    
C120  C128  A    
C26   C37   A    
C10   C170  A    
C89   O29   A    
C112  H32   S    
C33   C41   A    
C142  C150  A    
C9    C165  A    
C196  H69   S    
C66   H18   S    
C75   C83   A    
C192  H60   S    
Cu10  O38   S    
C77   C93   A    
C153  H4    S    
C209  H100  S    
C194  H64   S    
C44   C111  A    
C16   C170  A    
C60   C68   A    
C92   O32   A    
C39   C116  A    
C29   C37   A    
Cu2   O2    S    
C9    C172  A    
C148  C156  A    
C63   H15   S    
C144  C152  A    
Cu9   O48   S    
Cu10  O47   S    
C30   C126  A    
C115  H35   S    
C70   C78   A    
O55   C207  S    
C119  H39   S    
C24   C32   A    
C3    O19   A    
C122  H42   S    
C200  H78   S    
C139  O47   A    
C46   C102  A    
C189  C190  S    
C81   C97   A    
C106  C114  A    
C150  H7    S    
C7    O23   A    
C210  H103  S    
C91   O4    A    
C59   C137  S    
Cu5   O21   S    
C48   C104  A    
Cu12  O34   S    
C159  C168  A    
C15   C169  A    
Cu7   O31   S    
C160  C167  A    
Cu8   O8    S    
C58   C66   A    
C133  O35   A    
C105  C113  A    
C106  H26   S    
C133  O41   A    
C85   O6    A    
C80   C96   A    
C52   C60   A    
C212  H108  S    
C145  C153  A    
C28   C100  A    
C32   C40   A    
C194  H66   S    
C202  H84   S    
Cu10  O39   S    
C13   O49   S    
C206  H93   S    
C46   C54   A    
C26   C98   A    
C26   C34   A    
C143  C157  A    
C130  H50   S    
C51   C99   A    
C11   C173  A    
C128  H48   S    
C152  H5    S    
C14   C172  A    
C87   C184  S    
C88   C183  S    
C208  H98   S    
C2    O13   A    
Cu1   O25   S    
C107  H27   S    
Cu6   O6    S    
Cu3   O11   S    
Cu2   O26   S    
C190  C191  S    
C54   C136  S    
C7    O12   A    
C3    C76   S    
C107  C115  A    
C137  O39   A    
Cu4   O28   S    
C12   C175  A    
C195  H68   S    
C90   O1    A    
Cu11  O44   S    
Cu12  O43   S    
C150  C152  A    
C80   C120  A    
C51   C59   A    
C43   C112  A    
C144  C158  A    
C191  H57   S    
C132  H52   S    
C47   C55   A    
C200  H80   S    
C61   C69   A    
C48   C56   A    
C189  H53   S    
C211  H105  S    
C175  C183  A    
C64   H16   S    
C142  C160  A    
C12   C168  A    
C196  C197  S    
C84   C124  A    
C20   O56   S    
Cu5   O13   S    
Cu2   O10   S    
C186  H10   S    
C192  C193  S    
C201  H81   S    
C196  H70   S    
O54   C204  S    
C31   C39   A    
C6    O9    A    
C85   O25   A    
C64   C72   A    
C151  H6    S    
C180  C185  A    
C34   C130  A    
C199  H76   S    
C47   C95   A    
C118  C126  A    
C13   C148  A    
O53   C201  S    
C122  C130  A    
