data_mof_unit_2865.cif
_audit_creation_date              2013-03-05T15:41:02-0500
_audit_creation_method            fapswitch 2.2
_symmetry_space_group_name_H-M    P1
_symmetry_Int_Tables_number       1
_space_group_crystal_system       triclinic
_cell_length_a                    28.112226
_cell_length_b                    18.459452
_cell_length_c                    16.967259
_cell_angle_alpha                 90.022241
_cell_angle_beta                  61.37531
_cell_angle_gamma                 89.821909
_cell_volume                      7728.70346157

loop_
_atom_site_label
_atom_site_type_symbol
_atom_site_description
_atom_site_fract_x
_atom_site_fract_y
_atom_site_fract_z
_atom_type_partial_charge
O1    O     O_R   0.746490 0.236330 0.638080 -0.644747
O2    O     O_R   0.253510 0.763670 0.361920 -0.642946
O3    O     O_R   0.253510 0.236330 0.361920 -0.641902
O4    O     O_R   0.746490 0.763670 0.638080 -0.644862
O5    O     O_R   0.246490 0.736330 0.638080 -0.637790
O6    O     O_R   0.753510 0.263670 0.361920 -0.642338
O7    O     O_R   0.753510 0.736330 0.361920 -0.645814
O8    O     O_R   0.246490 0.263670 0.638080 -0.664071
O9    O     O_R   0.674170 0.186160 0.516270 -0.631009
O10   O     O_R   0.325830 0.813840 0.483730 -0.647031
O11   O     O_R   0.325830 0.186160 0.483730 -0.633806
O12   O     O_R   0.674170 0.813840 0.516270 -0.644388
O13   O     O_R   0.174170 0.686160 0.516270 -0.638939
O14   O     O_R   0.825830 0.313840 0.483730 -0.651670
O15   O     O_R   0.825830 0.686160 0.483730 -0.640430
O16   O     O_R   0.174170 0.313840 0.516270 -0.636987
O17   O     O_R   0.739960 0.127620 0.525000 -0.611371
O18   O     O_R   0.260040 0.872380 0.475000 -0.619563
O19   O     O_R   0.260040 0.127620 0.475000 -0.622689
O20   O     O_R   0.739960 0.872380 0.525000 -0.619742
O21   O     O_R   0.239960 0.627620 0.525000 -0.613903
O22   O     O_R   0.760040 0.372380 0.475000 -0.623887
O23   O     O_R   0.760040 0.627620 0.475000 -0.614525
O24   O     O_R   0.239960 0.372380 0.525000 -0.618125
O25   O     O_R   0.680700 0.294870 0.629350 -0.568002
O26   O     O_R   0.319300 0.705130 0.370650 -0.553198
O27   O     O_R   0.319300 0.294870 0.370650 -0.543720
O28   O     O_R   0.680700 0.705130 0.629350 -0.552900
O29   O     O_R   0.180700 0.794870 0.629350 -0.565765
O30   O     O_R   0.819300 0.205130 0.370650 -0.545229
O31   O     O_R   0.819300 0.794870 0.370650 -0.551681
O32   O     O_R   0.180700 0.205130 0.629350 -0.558158
C1    C     C_R   0.704118 0.274239 0.674943 0.891605
C2    C     C_R   0.299596 0.734938 0.322774 0.905202
C3    C     C_R   0.299297 0.265716 0.322835 0.922332
C4    C     C_R   0.700427 0.734906 0.677164 0.902624
C5    C     C_R   0.204655 0.775108 0.674408 0.906823
C6    C     C_R   0.799620 0.235178 0.322896 0.922219
C7    C     C_R   0.799262 0.765743 0.322837 0.906473
C8    C     C_R   0.200486 0.234808 0.677138 0.881762
C9    C     C_R   0.690837 0.129624 0.536935 0.894352
C10   C     C_R   0.308266 0.871074 0.467898 0.867232
C11   C     C_R   0.303334 0.128061 0.483170 0.897581
C12   C     C_R   0.691384 0.870528 0.535420 0.884382
C13   C     C_R   0.191231 0.629829 0.536480 0.903751
C14   C     C_R   0.804947 0.371958 0.478732 0.879183
C15   C     C_R   0.808428 0.629046 0.467504 0.887386
C16   C     C_R   0.191126 0.370627 0.536492 0.880893
Zn1   Zn    Zn3+2 0.792340 0.208750 0.507670 1.065034
Zn2   Zn    Zn3+2 0.207660 0.791250 0.492330 1.059109
Zn3   Zn    Zn3+2 0.207660 0.208750 0.492330 1.059611
Zn4   Zn    Zn3+2 0.792340 0.791250 0.507670 1.058599
Zn5   Zn    Zn3+2 0.292340 0.708750 0.507670 1.066219
Zn6   Zn    Zn3+2 0.707660 0.291250 0.492330 1.066334
Zn7   Zn    Zn3+2 0.707660 0.708750 0.492330 1.057420
Zn8   Zn    Zn3+2 0.292340 0.291250 0.507670 1.058797
H1    H     H_    0.018723 0.254566 0.580428 0.172580
H2    H     H_    0.967619 0.748007 0.479826 0.169500
H3    H     H_    0.943119 0.255326 0.547052 0.193961
H4    H     H_    0.033133 0.750134 0.536655 0.170801
H5    H     H_    0.538428 0.751713 0.524895 0.160584
H6    H     H_    0.415486 0.236860 0.616251 0.166979
H7    H     H_    0.472970 0.754846 0.468019 0.166412
H8    H     H_    0.499360 0.240554 0.627570 0.173331
C17   C     C_R   0.519983 0.127896 0.591041 0.095572
C18   C     C_R   0.457638 0.870205 0.489630 0.093525
C19   C     C_R   0.425150 0.124613 0.573308 0.098141
C20   C     C_R   0.535843 0.867583 0.547284 0.088725
C21   C     C_R   0.034856 0.633525 0.549913 0.084829
C22   C     C_R   0.939914 0.371920 0.538988 0.072506
C23   C     C_R   0.957254 0.631482 0.490403 0.082794
C24   C     C_R   0.028410 0.371109 0.571241 0.080485
C25   C     C_R   0.487648 0.190246 0.608830 -0.161717
C26   C     C_R   0.483094 0.804802 0.490038 -0.103019
C27   C     C_R   0.439850 0.188132 0.602123 -0.183324
C28   C     C_R   0.520120 0.802945 0.522886 -0.111786
C29   C     C_R   0.016756 0.698672 0.530481 -0.163742
C30   C     C_R   0.960259 0.306282 0.552259 -0.081736
C31   C     C_R   0.979686 0.697415 0.497578 -0.169845
C32   C     C_R   0.003792 0.305816 0.569750 -0.096832
C33   C     C_R   0.456926 0.062154 0.556121 0.040436
C34   C     C_R   0.512434 0.933389 0.543135 0.040668
C35   C     C_R   0.502799 0.063039 0.569183 0.033715
C36   C     C_R   0.470727 0.933984 0.520053 0.042071
C37   C     C_R   0.972774 0.566902 0.515395 0.034643
C38   C     C_R   0.009558 0.436632 0.553642 0.033070
C39   C     C_R   0.013659 0.567537 0.540635 0.034052
C40   C     C_R   0.966015 0.436721 0.535094 0.036292
C41   C     C_R   0.948186 0.501485 0.513844 -0.035988
C42   C     C_R   0.033532 0.502111 0.556262 -0.036278
C43   C     C_R   0.442640 0.998414 0.526740 -0.036336
C44   C     C_R   0.530780 0.998556 0.562113 -0.037590
C45   C     C_R   0.876914 0.435927 0.501145 0.052884
C46   C     C_R   0.103861 0.567906 0.570078 0.048694
C47   C     C_R   0.103184 0.435448 0.573308 0.047189
C48   C     C_R   0.888685 0.565667 0.468537 0.059059
C49   C     C_R   0.386399 0.934992 0.474305 0.056546
C50   C     C_R   0.601628 0.065731 0.575156 0.051853
C51   C     C_R   0.603764 0.933037 0.569146 0.044374
C52   C     C_R   0.369294 0.062406 0.518505 0.049887
C53   C     C_R   0.834006 0.436483 0.478368 -0.091597
C54   C     C_R   0.156639 0.566159 0.561839 -0.110148
C55   C     C_R   0.156525 0.435527 0.562350 -0.112126
C56   C     C_R   0.841010 0.564585 0.457889 -0.103856
C57   C     C_R   0.339675 0.935809 0.461286 -0.102068
C58   C     C_R   0.655864 0.065245 0.562008 -0.113152
C59   C     C_R   0.656685 0.934565 0.560152 -0.106912
C60   C     C_R   0.329984 0.062972 0.487957 -0.097158
C61   C     C_R   0.817665 0.499902 0.455925 -0.285160
C62   C     C_R   0.180974 0.500640 0.561663 -0.265174
C63   C     C_R   0.315882 0.000360 0.460286 -0.282139
C64   C     C_R   0.680819 0.999946 0.559727 -0.267709
H9    H     H_    0.783623 0.499588 0.442457 0.203204
H10   H     H_    0.221795 0.500291 0.552847 0.206941
H11   H     H_    0.283500 0.001040 0.442708 0.203491
H12   H     H_    0.721830 0.000024 0.550053 0.207227
C65   C     C_R   0.905080 0.500855 0.493090 0.065443
C66   C     C_R   0.079697 0.501864 0.568292 0.074343
C67   C     C_R   0.399740 0.998762 0.505783 0.066217
C68   C     C_R   0.578420 0.999176 0.570124 0.073130
C69   C     C_R   0.073154 0.371450 0.585647 -0.187963
C70   C     C_R   0.919193 0.629264 0.459693 -0.202684
C71   C     C_R   0.893023 0.373392 0.531771 -0.210877
C72   C     C_R   0.075493 0.632956 0.574633 -0.194019
C73   C     C_R   0.576079 0.867946 0.572536 -0.181023
C74   C     C_R   0.379481 0.122627 0.560869 -0.216371
C75   C     C_R   0.418893 0.872525 0.460528 -0.199540
C76   C     C_R   0.569475 0.129274 0.593053 -0.198746
C77   C     C_R   0.724479 0.281654 0.950988 0.003842
C78   C     C_R   0.288221 0.755353 0.037713 0.007842
C79   C     C_R   0.280821 0.263819 0.044087 0.005667
C80   C     C_R   0.716221 0.742630 0.957846 0.003847
C81   C     C_R   0.227652 0.786810 0.947495 0.007658
C82   C     C_R   0.785002 0.250302 0.041230 0.006732
C83   C     C_R   0.780100 0.764829 0.044733 0.005649
C84   C     C_R   0.216961 0.241597 0.957178 0.004667
C85   C     C_R   0.778973 0.258371 0.901619 -0.062143
C86   C     C_R   0.237236 0.790568 0.084020 -0.071260
C87   C     C_R   0.233360 0.221278 0.086141 -0.070151
C88   C     C_R   0.763357 0.785885 0.916068 -0.071346
C89   C     C_R   0.283085 0.767320 0.897232 -0.063430
C90   C     C_R   0.734770 0.287481 0.086798 -0.071440
C91   C     C_R   0.732708 0.722125 0.086704 -0.070515
C92   C     C_R   0.264299 0.284503 0.915166 -0.071493
C93   C     C_R   0.805929 0.232901 0.949365 0.078012
C94   C     C_R   0.203983 0.795882 0.041629 0.083575
C95   C     C_R   0.199407 0.215043 0.045109 0.082045
C96   C     C_R   0.797335 0.792182 0.957111 0.086426
C97   C     C_R   0.310655 0.741858 0.944445 0.083412
C98   C     C_R   0.701271 0.292900 0.044694 0.082503
C99   C     C_R   0.698731 0.715917 0.045698 0.083294
C100  C     C_R   0.298258 0.290780 0.956250 0.087553
C101  C     C_R   0.638995 0.317493 0.954634 0.030124
C102  C     C_R   0.364475 0.691357 0.042148 0.035223
C103  C     C_R   0.360948 0.316685 0.045313 0.037809
C104  C     C_R   0.637397 0.686438 0.955380 0.036123
C105  C     C_R   0.141121 0.819663 0.952624 0.032014
C106  C     C_R   0.861990 0.187712 0.044748 0.037491
C107  C     C_R   0.860388 0.817454 0.045727 0.037627
C108  C     C_R   0.137847 0.185906 0.955062 0.035039
C109  C     C_R   0.610784 0.337364 0.906681 -0.225815
C110  C     C_R   0.389550 0.664726 0.093392 -0.236192
C111  C     C_R   0.388147 0.338316 0.094697 -0.233512
C112  C     C_R   0.611148 0.662762 0.905294 -0.243834
C113  C     C_R   0.112204 0.838672 0.905572 -0.226033
C114  C     C_R   0.888375 0.163275 0.094664 -0.238750
C115  C     C_R   0.887818 0.838695 0.094927 -0.237743
C116  C     C_R   0.111391 0.162525 0.905165 -0.245966
C117  C     C_R   0.629250 0.313318 0.819653 0.239066
C118  C     C_R   0.373335 0.691685 0.179247 0.232413
C119  C     C_R   0.372230 0.310501 0.179908 0.226606
C120  C     C_R   0.627202 0.690181 0.819782 0.230905
C121  C     C_R   0.130422 0.814350 0.818917 0.236357
C122  C     C_R   0.872933 0.191548 0.179607 0.227241
C123  C     C_R   0.872060 0.810541 0.179931 0.230504
C124  C     C_R   0.127363 0.190087 0.819766 0.231000
C125  C     C_R   0.683439 0.292462 0.769697 -0.214358
C126  C     C_R   0.324811 0.729949 0.223830 -0.219000
C127  C     C_R   0.323592 0.272978 0.224289 -0.221794
C128  C     C_R   0.675375 0.728885 0.775917 -0.209994
C129  C     C_R   0.184780 0.794432 0.768371 -0.217829
C130  C     C_R   0.824459 0.229886 0.224269 -0.216439
C131  C     C_R   0.823433 0.773046 0.224318 -0.214486
C132  C     C_R   0.175609 0.228606 0.775799 -0.202906
C133  C     C_R   0.717035 0.288273 0.812143 -0.022352
C134  C     C_R   0.297828 0.755419 0.174945 -0.023534
C135  C     C_R   0.295468 0.251038 0.175990 -0.022033
C136  C     C_R   0.702530 0.752833 0.824918 -0.024111
C137  C     C_R   0.219256 0.792230 0.809477 -0.030451
C138  C     C_R   0.796718 0.254249 0.176188 -0.025106
C139  C     C_R   0.795111 0.751436 0.176215 -0.022615
C140  C     C_R   0.203030 0.252156 0.824537 -0.026002
C141  C     C_R   0.693282 0.294658 0.906154 0.071418
C142  C     C_R   0.316846 0.733885 0.085000 0.074184
C143  C     C_R   0.312190 0.277636 0.088808 0.070087
C144  C     C_R   0.685521 0.727049 0.912461 0.070930
C145  C     C_R   0.195887 0.798539 0.903368 0.073862
C146  C     C_R   0.814496 0.230532 0.087570 0.074178
C147  C     C_R   0.811630 0.778385 0.089257 0.069476
C148  C     C_R   0.186100 0.226269 0.911988 0.071218
C149  C     C_R   0.614690 0.319301 0.049000 -0.112547
C150  C     C_R   0.386007 0.679103 0.948943 -0.130000
C151  C     C_R   0.382533 0.328083 0.952104 -0.124268
C152  C     C_R   0.615376 0.675619 0.048717 -0.115300
C153  C     C_R   0.116886 0.820138 0.046866 -0.116000
C154  C     C_R   0.881775 0.172160 0.952835 -0.134039
C155  C     C_R   0.881738 0.829237 0.952623 -0.124885
C156  C     C_R   0.115903 0.175084 0.048374 -0.114663
C157  C     C_R   0.645054 0.306464 0.093063 -0.112561
C158  C     C_R   0.359103 0.701723 0.902338 -0.106667
C159  C     C_R   0.351819 0.316011 0.908980 -0.127321
C160  C     C_R   0.645370 0.689837 0.092604 -0.119241
C161  C     C_R   0.147469 0.807095 0.090391 -0.115540
C162  C     C_R   0.852862 0.190060 0.908673 -0.103467
C163  C     C_R   0.850817 0.817625 0.909787 -0.123587
C164  C     C_R   0.145991 0.189164 0.092124 -0.115835
C165  C     C_R   0.773661 0.279940 0.764170 -0.213793
C166  C     C_R   0.254748 0.806089 0.210354 -0.191411
C167  C     C_R   0.254669 0.197754 0.207661 -0.192761
C168  C     C_R   0.742769 0.806934 0.793232 -0.197448
C169  C     C_R   0.276221 0.786861 0.760348 -0.203437
C170  C     C_R   0.753988 0.305537 0.211071 -0.188151
C171  C     C_R   0.754294 0.698173 0.207852 -0.194345
C172  C     C_R   0.243513 0.305945 0.792658 -0.209825
C173  C     C_R   0.804190 0.263606 0.806735 0.313867
C174  C     C_R   0.223108 0.821332 0.169042 0.258441
C175  C     C_R   0.224585 0.181646 0.163755 0.250309
C176  C     C_R   0.772274 0.824717 0.837756 0.268893
C177  C     C_R   0.308141 0.775222 0.802336 0.288762
C178  C     C_R   0.721867 0.320190 0.170339 0.258381
C179  C     C_R   0.724065 0.682277 0.164123 0.249611
C180  C     C_R   0.273343 0.323219 0.836736 0.263195
H13   H     H_    0.623702 0.306001 0.165632 0.180449
H14   H     H_    0.376434 0.685043 0.833048 0.192242
H15   H     H_    0.371598 0.323919 0.837149 0.174835
H16   H     H_    0.625506 0.681949 0.164469 0.176922
H17   H     H_    0.126069 0.804802 0.162899 0.177215
H18   H     H_    0.867808 0.167642 0.842465 0.212364
H19   H     H_    0.870423 0.825938 0.838036 0.180155
H20   H     H_    0.126141 0.181360 0.164001 0.179355
H21   H     H_    0.796078 0.289446 0.692983 0.174983
H22   H     H_    0.247108 0.839656 0.267180 0.211958
H23   H     H_    0.249520 0.161661 0.261129 0.210755
H24   H     H_    0.748208 0.841796 0.738532 0.208246
H25   H     H_    0.297376 0.796771 0.688924 0.203195
H26   H     H_    0.747133 0.339989 0.266854 0.211844
H27   H     H_    0.749247 0.661928 0.261134 0.209862
H28   H     H_    0.248942 0.341056 0.738178 0.212073
O33   O     O_R   0.062020 0.072840 0.007170 -0.630183
O34   O     O_R   0.937980 0.927160 0.992830 -0.637651
O35   O     O_R   0.937980 0.072840 0.992830 -0.643251
O36   O     O_R   0.062020 0.927160 0.007170 -0.625440
O37   O     O_R   0.562020 0.572840 0.007170 -0.629494
O38   O     O_R   0.437980 0.427160 0.992830 -0.637877
O39   O     O_R   0.437980 0.572840 0.992830 -0.642064
O40   O     O_R   0.562020 0.427160 0.007170 -0.625045
O41   O     O_R   0.947860 0.073950 0.109290 -0.552443
O42   O     O_R   0.052140 0.926050 0.890710 -0.553547
O43   O     O_R   0.052140 0.073950 0.890710 -0.554521
O44   O     O_R   0.947860 0.926050 0.109290 -0.554590
O45   O     O_R   0.447860 0.573950 0.109290 -0.549408
O46   O     O_R   0.552140 0.426050 0.890710 -0.553736
O47   O     O_R   0.552140 0.573950 0.890710 -0.555575
O48   O     O_R   0.447860 0.426050 0.109290 -0.553472
C181  C     C_R   0.071653 0.103322 0.936697 0.916191
C182  C     C_R   0.928146 0.896957 0.063388 0.915147
C183  C     C_R   0.928017 0.103266 0.063514 0.912548
C184  C     C_R   0.070532 0.895487 0.938017 0.916412
C185  C     C_R   0.571567 0.603392 0.936760 0.915510
C186  C     C_R   0.428282 0.396827 0.063267 0.915768
C187  C     C_R   0.428615 0.603895 0.062867 0.911869
C188  C     C_R   0.569879 0.395012 0.938579 0.916317
Zn9   Zn    Zn3+2 0.505960 0.500000 0.080520 1.118799
Zn10  Zn    Zn3+2 0.494040 0.500000 0.919480 1.091995
Zn11  Zn    Zn3+2 0.005960 0.000000 0.080520 1.116126
Zn12  Zn    Zn3+2 0.994040 0.000000 0.919480 1.093038
H29   H     H_    0.083907 0.321291 0.605987 0.202326
H30   H     H_    0.914821 0.677789 0.428304 0.197977
H31   H     H_    0.869631 0.324972 0.555977 0.186206
H32   H     H_    0.084918 0.684059 0.594684 0.200430
H33   H     H_    0.585582 0.816593 0.591959 0.205570
H34   H     H_    0.352398 0.168469 0.586120 0.181009
H35   H     H_    0.415535 0.825207 0.426135 0.193541
H36   H     H_    0.581561 0.179631 0.610649 0.196954
N1    N     N_R   0.592102 0.309132 0.783855 0.214072
O49   O     O_R   0.590753 0.360299 0.732128 -0.349278
O50   O     O_R   0.552741 0.262517 0.817578 -0.415641
N2    N     N_R   0.408142 0.683873 0.219222 0.217754
O51   O     O_R   0.403608 0.628399 0.269774 -0.341894
O52   O     O_R   0.447296 0.729765 0.199036 -0.412408
N3    N     N_R   0.407702 0.315972 0.218833 0.221836
O53   O     O_R   0.404197 0.370735 0.269820 -0.335658
O54   O     O_R   0.446721 0.269103 0.196577 -0.396730
N4    N     N_R   0.592391 0.683034 0.779795 0.217717
O55   O     O_R   0.596276 0.627070 0.730230 -0.342459
O56   O     O_R   0.559058 0.735272 0.788472 -0.395183
N5    N     N_R   0.092804 0.808677 0.784189 0.214633
O57   O     O_R   0.090388 0.859283 0.732746 -0.347982
O58   O     O_R   0.054046 0.761239 0.818687 -0.409174
N6    N     N_R   0.908301 0.184908 0.218637 0.219954
O59   O     O_R   0.944264 0.234738 0.203504 -0.394722
O60   O     O_R   0.904884 0.129633 0.268777 -0.339447
N7    N     N_R   0.907651 0.815568 0.218668 0.217585
O61   O     O_R   0.904829 0.870486 0.268992 -0.341200
O62   O     O_R   0.942692 0.764194 0.204090 -0.409077
N8    N     N_R   0.092400 0.183305 0.780020 0.219007
O63   O     O_R   0.096051 0.127464 0.730430 -0.343836
O64   O     O_R   0.059280 0.235841 0.788723 -0.397396
H37   H     H_    0.571609 0.328610 0.089818 0.191607
H38   H     H_    0.425223 0.654946 0.908157 0.198174
H39   H     H_    0.424283 0.342960 0.909560 0.193861
H40   H     H_    0.573892 0.659276 0.090581 0.194610
H41   H     H_    0.073660 0.828081 0.087919 0.187571
H42   H     H_    0.920972 0.148842 0.910307 0.201365
H43   H     H_    0.923475 0.843982 0.909820 0.194917
H44   H     H_    0.074387 0.158933 0.090362 0.193851
N9    N     N_R   0.861511 0.258730 0.751490 0.167264
O65   O     O_R   0.893544 0.301988 0.764566 -0.383161
O66   O     O_R   0.881685 0.207034 0.692314 -0.438708
N10   N     N_R   0.181811 0.876037 0.209264 0.200106
O67   O     O_R   0.177731 0.927123 0.160105 -0.295594
O68   O     O_R   0.153080 0.880605 0.296223 -0.374209
N11   N     N_R   0.192568 0.116891 0.189980 0.199837
O69   O     O_R   0.165039 0.099218 0.274321 -0.358135
O70   O     O_R   0.197794 0.070040 0.129051 -0.312517
N12   N     N_R   0.804774 0.889159 0.809683 0.192294
O71   O     O_R   0.799321 0.938178 0.868639 -0.371468
O72   O     O_R   0.833259 0.904226 0.724678 -0.386649
N13   N     N_R   0.365828 0.781282 0.748155 0.187742
O73   O     O_R   0.393180 0.823296 0.773357 -0.368524
O74   O     O_R   0.390033 0.752398 0.668447 -0.411457
N14   N     N_R   0.681515 0.376185 0.209151 0.200231
O75   O     O_R   0.678237 0.426689 0.158570 -0.297478
O76   O     O_R   0.653315 0.382775 0.295982 -0.365678
N15   N     N_R   0.691984 0.617559 0.190375 0.199577
O77   O     O_R   0.664534 0.599861 0.274716 -0.361822
O78   O     O_R   0.697153 0.570690 0.129493 -0.311183
N16   N     N_R   0.306339 0.387184 0.808075 0.191336
O79   O     O_R   0.301024 0.436628 0.866493 -0.370113
O80   O     O_R   0.335192 0.401436 0.722907 -0.398643

loop_
_geom_bond_atom_site_label_1
_geom_bond_atom_site_label_2
_geom_bond_distance
_ccdc_geom_bond_type
O4    C4    1.257107 A    
O5    C5    1.255128 A    
C149  H37   1.082069 S    
C59   C64   1.384685 A    
C23   C70   1.397332 A    
N3    O53   1.302720 A    
O7    Zn7   2.022104 S    
O31   Zn4   2.072681 S    
C151  H39   1.079070 S    
O8    Zn8   2.022104 S    
O36   C184  1.226941 A    
O38   Zn10  1.993916 S    
N7    O62   1.300544 A    
C138  C146  1.407263 A    
C118  C126  1.391713 A    
C69   H29   1.079929 S    
C83   C147  1.435905 A    
C38   C40   1.402329 A    
O30   C6    1.303154 A    
C149  C157  1.397886 A    
C86   C174  1.417851 A    
C33   C35   1.409400 A    
O44   Zn11  2.004973 S    
C122  N6    1.439573 S    
C121  N5    1.440203 S    
O33   Zn11  1.993916 S    
N12   O71   1.301706 A    
C36   C43   1.399663 A    
O34   Zn12  1.993916 S    
C49   C57   1.432540 A    
C154  C162  1.383226 A    
C91   C99   1.430713 A    
O23   Zn7   2.017105 S    
H5    C28   1.083619 S    
C25   C27   1.402441 A    
O6    Zn6   2.019653 S    
C101  C149  1.408268 A    
C29   C31   1.398496 A    
O46   Zn10  1.997789 S    
O41   Zn11  1.997788 S    
C88   C176  1.422999 A    
C111  C186  1.468168 S    
O42   Zn12  1.997789 S    
N11   O69   1.301548 A    
C105  C153  1.406166 A    
C97   C158  1.405450 A    
C38   C42   1.396761 A    
C45   C53   1.432146 A    
N15   O78   1.300545 A    
O27   C3    1.304872 A    
C101  C109  1.429034 A    
C164  H20   1.080771 S    
N7    O61   1.302675 A    
O47   Zn10  2.004972 S    
C5    C129  1.458089 S    
C152  C160  1.391821 A    
C124  N8    1.439559 S    
N8    O63   1.302685 A    
O43   Zn12  2.004972 S    
O35   Zn12  1.986643 S    
C107  C155  1.412700 A    
H2    C31   1.083573 S    
O30   Zn1   2.072471 S    
C34   C36   1.402894 A    
C48   C56   1.435771 A    
H6    C27   1.083692 S    
C171  C179  1.401536 A    
C163  H19   1.080375 S    
C105  C113  1.428853 A    
C78   C86   1.417420 A    
C139  C171  1.410216 A    
N6    O59   1.300536 A    
C123  C131  1.390977 A    
C137  C145  1.406988 A    
C124  C132  1.392346 A    
C178  N14   1.437133 S    
C81   C145  1.429829 A    
C15   C56   1.459937 S    
C79   C143  1.435560 A    
C45   C71   1.424917 A    
C50   C68   1.414425 A    
H7    C26   1.083611 S    
O24   Zn8   2.017105 S    
O9    C9    1.259483 A    
C50   C58   1.431300 A    
C60   C63   1.376289 A    
C171  H27   1.078550 S    
C115  C182  1.468010 S    
N1    O50   1.300725 A    
O13   C13   1.258426 A    
C90   C98   1.432224 A    
C106  C146  1.413816 A    
C107  C115  1.436527 A    
C71   H31   1.070129 S    
C11   C60   1.436767 S    
C140  C148  1.407787 A    
C84   C148  1.435048 A    
C13   C54   1.455593 S    
N15   O77   1.301524 A    
C126  C134  1.444080 A    
C77   C85   1.413996 A    
C40   C41   1.407201 A    
C46   C54   1.422311 A    
O12   C12   1.260290 A    
O7    C7    1.255478 A    
O9    Zn6   2.111908 S    
O8    C8    1.256568 A    
C152  H40   1.078999 S    
C89   C177  1.422713 A    
C166  C174  1.399132 A    
O11   Zn8   2.106235 S    
N2    O52   1.300503 A    
C112  C185  1.470761 S    
C21   C29   1.403939 A    
O41   C183  1.273117 A    
O16   Zn3   2.106235 S    
C180  N16   1.437407 S    
O42   C184  1.275190 A    
C122  C130  1.391470 A    
C23   C31   1.404295 A    
C72   H32   1.078647 S    
C34   C44   1.406926 A    
O22   Zn6   2.024059 S    
C134  C166  1.413470 A    
C26   C28   1.396720 A    
C55   C62   1.383739 A    
C52   C74   1.425846 A    
N3    O54   1.300506 A    
C138  C170  1.414525 A    
C30   C32   1.390620 A    
C90   C178  1.417996 A    
C18   C26   1.403269 A    
O33   C181  1.229195 A    
C85   C173  1.418015 A    
O2    Zn2   2.019653 S    
C159  H15   1.080386 S    
H8    C25   1.083468 S    
O6    C6    1.252377 A    
C150  H38   1.076498 S    
C62   H10   1.083869 S    
C109  C117  1.382227 A    
C173  N9    1.426613 S    
N5    O58   1.300708 A    
H1    C32   1.083746 S    
C151  C159  1.391757 A    
C45   C65   1.408712 A    
C103  C151  1.412521 A    
C70   H30   1.078656 S    
H3    C30   1.080857 S    
C117  C125  1.395086 A    
C160  H16   1.080786 S    
C47   C55   1.419875 A    
O21   C13   1.288475 A    
C109  C188  1.464002 S    
C3    C127  1.478765 S    
C14   C53   1.444753 S    
C110  C187  1.477202 S    
C52   C60   1.427841 A    
O20   C12   1.290804 A    
O23   C15   1.304492 A    
C99   C160  1.405824 A    
O39   Zn10  1.986643 S    
C1    C125  1.462424 S    
O24   C16   1.291343 A    
C48   C65   1.413603 A    
N14   O75   1.300023 A    
O17   Zn1   2.024059 S    
C103  C111  1.435862 A    
C16   C55   1.468790 S    
C123  N7    1.439560 S    
C93   C162  1.401141 A    
N11   O70   1.300489 A    
N10   O68   1.301584 A    
C49   C67   1.416264 A    
C108  C156  1.411495 A    
C153  H41   1.082194 S    
O3    C3    1.256022 A    
C156  H44   1.078973 S    
C52   C67   1.405672 A    
C73   H33   1.077784 S    
C19   C33   1.398601 A    
N16   O80   1.301505 A    
C43   C67   1.411313 A    
C112  C120  1.392681 A    
C19   C27   1.407407 A    
C76   H36   1.080559 S    
C169  C177  1.403717 A    
C64   H12   1.083905 S    
C115  C123  1.391533 A    
C12   C59   1.457801 S    
C116  C124  1.392353 A    
O48   C186  1.271619 A    
C102  C110  1.442210 A    
C41   C65   1.414773 A    
C20   C28   1.403088 A    
C130  C138  1.443497 A    
C6    C130  1.475574 S    
C20   C34   1.397528 A    
C44   C68   1.409523 A    
C24   C32   1.397936 A    
C177  N13   1.435386 S    
C46   C66   1.404787 A    
O2    C2    1.253768 A    
C86   C94   1.429872 A    
C107  C147  1.407491 A    
C166  H22   1.077036 S    
O45   C187  1.274929 A    
O12   Zn7   2.106235 S    
C79   C87   1.414494 A    
C121  C129  1.395158 A    
O13   Zn2   2.111908 S    
O47   C185  1.270627 A    
C101  C141  1.405813 A    
C170  C178  1.400961 A    
N12   O72   1.301505 A    
C91   C179  1.421863 A    
C20   C73   1.388324 A    
C165  C173  1.393390 A    
C176  N12   1.437664 S    
C96   C163  1.404935 A    
C24   C69   1.391631 A    
O10   C10   1.247503 A    
C4    C128  1.478465 S    
C116  C181  1.471030 S    
O14   C14   1.243641 A    
C120  N4    1.439553 S    
C108  C116  1.435682 A    
C117  N1    1.440036 S    
C42   C66   1.407020 A    
C85   C93   1.427537 A    
C104  C144  1.409026 A    
N4    O55   1.302710 A    
C127  C135  1.443346 A    
C53   C61   1.375196 A    
C125  C133  1.438055 A    
C168  C176  1.402974 A    
C87   C175  1.421584 A    
N5    O57   1.302373 A    
N9    O66   1.300288 A    
O10   Zn5   2.111908 S    
C128  C136  1.441986 A    
C129  C137  1.440455 A    
C172  H28   1.078775 S    
O37   C185  1.229454 A    
C113  C184  1.466060 S    
N8    O64   1.300654 A    
C114  C183  1.475090 S    
C132  C140  1.442078 A    
C111  C119  1.391511 A    
C21   C39   1.399236 A    
C120  C128  1.392521 A    
C50   C76   1.419580 A    
C57   C63   1.368772 A    
C153  C161  1.396325 A    
C88   C96   1.431359 A    
C79   C100  1.418181 A    
C102  C150  1.414271 A    
O19   C11   1.289307 A    
C136  C168  1.410948 A    
C114  C122  1.391619 A    
C9    C58   1.472004 S    
O1    C1    1.257146 A    
C106  C154  1.411180 A    
C17   C76   1.408310 A    
O25   Zn6   2.072471 S    
C140  C172  1.411122 A    
C51   C73   1.419768 A    
C19   C74   1.397898 A    
O3    Zn3   2.022104 S    
O27   Zn8   2.072681 S    
C58   C64   1.383936 A    
C21   C72   1.392902 A    
O32   Zn3   2.072681 S    
N1    O49   1.302362 A    
C82   C90   1.417877 A    
O40   C188  1.227889 A    
C47   C69   1.410382 A    
C110  C118  1.392597 A    
C155  C163  1.391446 A    
O15   Zn4   2.106235 S    
O34   C182  1.226726 A    
C133  C165  1.406104 A    
O22   C14   1.293973 A    
O40   Zn9   1.986645 S    
C2    C126  1.479396 S    
C106  C114  1.439133 A    
C82   C93   1.413719 A    
C37   C41   1.399739 A    
C162  H18   1.075211 S    
C92   C180  1.422660 A    
C118  N2    1.439920 S    
C139  C147  1.409097 A    
C78   C142  1.437087 A    
C24   C38   1.407437 A    
C154  H42   1.074776 S    
C80   C88   1.415258 A    
C51   C59   1.421325 A    
C81   C89   1.417070 A    
O48   Zn9   2.004973 S    
C48   C70   1.421048 A    
C119  C127  1.391449 A    
O18   C10   1.302446 A    
C84   C92   1.415782 A    
O37   Zn9   1.993916 S    
N10   O67   1.299888 A    
C170  H26   1.077699 S    
C74   H34   1.078174 S    
C105  C145  1.408543 A    
C158  H14   1.079050 S    
C10   C57   1.460122 S    
C165  H21   1.076277 S    
C94   C161  1.410626 A    
C103  C143  1.407255 A    
C33   C43   1.410152 A    
O28   C4    1.304005 A    
C174  N10   1.437499 S    
C39   C42   1.406778 A    
O29   C5    1.289586 A    
C80   C99   1.416558 A    
C81   C94   1.415159 A    
C167  C175  1.401317 A    
C7    C131  1.478694 S    
C92   C100  1.431427 A    
C8    C132  1.477651 S    
N4    O56   1.300648 A    
C22   C30   1.401858 A    
N13   O73   1.301576 A    
O15   C15   1.248482 A    
C49   C75   1.416829 A    
C22   C40   1.390218 A    
O16   C16   1.266221 A    
C89   C97   1.433970 A    
C108  C148  1.409332 A    
O39   C187  1.228360 A    
C35   C44   1.397735 A    
C168  H24   1.078898 S    
C87   C95   1.430485 A    
C155  H43   1.078840 S    
O4    Zn4   2.022104 S    
O18   Zn2   2.024059 S    
O5    Zn5   2.019653 S    
N14   O76   1.301533 A    
C161  H17   1.080887 S    
C172  C180  1.402386 A    
C56   C61   1.372326 A    
C137  C169  1.410350 A    
C17   C35   1.406822 A    
O14   Zn1   2.111908 S    
O45   Zn9   1.997788 S    
C113  C121  1.379205 A    
C17   C25   1.404437 A    
C18   C75   1.395387 A    
C75   H35   1.079477 S    
C51   C68   1.407732 A    
C23   C37   1.402035 A    
C22   C71   1.381243 A    
O26   C2    1.303479 A    
O31   C7    1.305361 A    
O1    Zn1   2.019653 S    
O11   C11   1.249088 A    
N6    O60   1.302703 A    
C61   H9    1.085186 S    
C156  C164  1.391706 A    
C150  C158  1.393919 A    
O28   Zn7   2.072681 S    
C157  H13   1.080903 S    
O29   Zn2   2.072471 S    
C37   C39   1.405791 A    
C47   C66   1.412503 A    
H4    C29   1.083606 S    
C98   C157  1.410151 A    
C95   C164  1.405893 A    
O46   C188  1.274085 A    
O38   C186  1.226957 A    
O35   C183  1.228374 A    
O43   C181  1.270969 A    
C134  C142  1.410436 A    
C78   C97   1.416535 A    
N13   O74   1.300684 A    
C104  C112  1.435354 A    
C179  N15   1.435685 S    
N16   O79   1.301684 A    
C135  C167  1.410183 A    
C104  C152  1.411664 A    
O26   Zn5   2.072471 S    
C175  N11   1.435384 S    
C82   C146  1.435918 A    
C135  C143  1.409228 A    
C100  C159  1.405315 A    
C133  C141  1.408185 A    
C131  C139  1.443475 A    
C77   C141  1.429514 A    
N2    O51   1.302811 A    
C77   C98   1.414803 A    
O20   Zn4   2.017105 S    
O21   Zn5   2.024059 S    
C169  H25   1.079847 S    
C83   C91   1.414725 A    
C167  H23   1.078482 S    
O32   C8    1.304090 A    
N9    O65   1.301368 A    
O36   Zn11  1.986645 S    
O17   C9    1.296586 A    
C84   C95   1.416458 A    
C54   C62   1.386973 A    
C18   C36   1.404330 A    
C102  C142  1.413491 A    
O19   Zn3   2.017105 S    
C136  C144  1.408167 A    
C83   C96   1.418414 A    
O25   C1    1.289778 A    
C80   C144  1.434838 A    
C63   H11   1.085295 S    
O44   C182  1.271702 A    
C46   C72   1.420829 A    
C119  N3    1.439602 S    
