data_mof_unit_3373.cif
_audit_creation_date              2012-12-10T17:30:48-0500
_audit_creation_method            fapswitch 2.2
_symmetry_space_group_name_H-M    P1
_symmetry_Int_Tables_number       1
_space_group_crystal_system       triclinic
_cell_length_a                    18.316631
_cell_length_b                    18.307199
_cell_length_c                    60.05653
_cell_angle_alpha                 89.921065
_cell_angle_beta                  89.910813
_cell_angle_gamma                 89.995019
_cell_volume                      20138.4849324

loop_
_atom_site_label
_atom_site_type_symbol
_atom_type_description
_atom_site_fract_x
_atom_site_fract_y
_atom_site_fract_z
_atom_type_partial_charge
C1    C     C_R   0.500153 0.000299 0.189583 0.805170
C2    C     C_R   0.500101 0.000244 0.617588 0.212717
C3    C     C_R   0.016232 0.631205 0.476038 -0.260474
C4    C     C_R   0.631644 0.016007 0.523857 -0.260000
C5    C     C_R   0.368703 0.015788 0.476135 -0.260019
C6    C     C_R   0.983268 0.631174 0.523869 -0.260456
C7    C     C_R   0.983324 0.368393 0.476156 -0.260454
C8    C     C_R   0.639886 0.860124 0.250005 0.795914
C9    C     C_R   0.360151 0.139844 0.749995 0.804598
C10   C     C_R   0.139824 0.639867 0.249985 0.798526
C11   C     C_R   0.860181 0.360138 0.750012 0.807644
C12   C     C_R   0.360150 0.139863 0.250003 0.794444
C13   C     C_R   0.999741 0.499823 0.382196 0.209608
C14   C     C_R   0.639810 0.860170 0.749997 0.803181
C15   C     C_R   0.860131 0.360174 0.250004 0.798639
C16   C     C_R   0.139856 0.639826 0.749995 0.806770
C17   C     C_R   0.639848 0.139895 0.749987 0.795266
C18   C     C_R   0.360185 0.860149 0.250010 0.803106
C19   C     C_R   0.139854 0.360141 0.750004 0.799352
C20   C     C_R   0.860131 0.639841 0.249993 0.808179
C21   C     C_R   0.360107 0.860148 0.750006 0.795230
C22   C     C_R   0.639857 0.139812 0.249992 0.803414
C23   C     C_R   0.860175 0.639837 0.750003 0.797951
C24   C     C_R   0.000176 0.499753 0.617809 0.209641
C25   C     C_R   0.139822 0.360167 0.249996 0.807099
C26   C     C_R   0.230563 0.876935 0.276357 -0.169384
C27   C     C_R   0.787774 0.104969 0.737894 -0.146780
C28   C     C_R   0.104910 0.212385 0.262228 -0.161572
C29   C     C_R   0.876597 0.769071 0.723400 -0.151973
C30   C     C_R   0.769429 0.122573 0.276225 -0.169538
C31   C     C_R   0.212340 0.895095 0.737843 -0.147378
C32   C     C_R   0.895068 0.787582 0.262087 -0.161638
C33   C     C_R   0.123619 0.231137 0.723421 -0.152270
C34   C     C_R   0.230243 0.122484 0.723943 -0.169042
C35   C     C_R   0.996137 0.498852 0.882249 0.209747
C36   C     C_R   0.787474 0.894837 0.262356 -0.147456
C37   C     C_R   0.104850 0.787760 0.738006 -0.161275
C38   C     C_R   0.875914 0.231336 0.276806 -0.152278
C39   C     C_R   0.769981 0.877735 0.723937 -0.169069
C40   C     C_R   0.212527 0.105145 0.262495 -0.146984
C41   C     C_R   0.895413 0.212136 0.738221 -0.161870
C42   C     C_R   0.123823 0.768405 0.276814 -0.152280
C43   C     C_R   0.712185 0.395373 0.761820 -0.161350
C44   C     C_R   0.268307 0.624318 0.223026 -0.152196
C45   C     C_R   0.622256 0.729878 0.776030 -0.169486
C46   C     C_R   0.998251 0.499046 0.117847 0.209754
C47   C     C_R   0.394748 0.287548 0.237468 -0.147492
C48   C     C_R   0.287578 0.604669 0.762013 -0.161810
C49   C     C_R   0.731699 0.376191 0.223159 -0.152674
C50   C     C_R   0.377480 0.269874 0.776024 -0.168245
C51   C     C_R   0.605258 0.712508 0.237598 -0.147194
C52   C     C_R   0.712429 0.604829 0.237922 -0.161633
C53   C     C_R   0.268734 0.376396 0.776608 -0.151838
C54   C     C_R   0.623260 0.269355 0.223577 -0.172236
C55   C     C_R   0.394825 0.712246 0.762243 -0.147039
C56   C     C_R   0.287468 0.395131 0.237699 -0.160339
C57   C     C_R   0.498042 0.994144 0.882341 0.212667
C58   C     C_R   0.731012 0.623359 0.776610 -0.152399
C59   C     C_R   0.376824 0.731066 0.223483 -0.171624
C60   C     C_R   0.604875 0.287870 0.762002 -0.147341
C61   C     C_R   0.168682 0.884757 0.289675 -0.172083
C62   C     C_R   0.859480 0.087136 0.732420 -0.148640
C63   C     C_R   0.087317 0.140908 0.268075 -0.159336
C64   C     C_R   0.885084 0.831589 0.710390 -0.153591
C65   C     C_R   0.831153 0.114645 0.289552 -0.172264
C66   C     C_R   0.140751 0.912870 0.732263 -0.148423
C67   C     C_R   0.912662 0.859040 0.267873 -0.159316
C68   C     C_R   0.502265 0.003256 0.117512 0.211019
C69   C     C_R   0.115239 0.168727 0.710417 -0.153659
C70   C     C_R   0.168318 0.114488 0.710713 -0.172587
C71   C     C_R   0.859011 0.912518 0.268010 -0.148409
C72   C     C_R   0.087160 0.859353 0.732343 -0.159116
C73   C     C_R   0.884159 0.168944 0.289880 -0.153316
C74   C     C_R   0.832020 0.885841 0.710698 -0.172707
C75   C     C_R   0.140979 0.087440 0.268213 -0.148264
C76   C     C_R   0.913150 0.140568 0.732585 -0.159521
C77   C     C_R   0.115544 0.830578 0.289939 -0.153089
C78   C     C_R   0.640583 0.413159 0.767409 -0.159432
C79   C     C_R   0.500219 0.000008 0.452703 -0.064954
C80   C     C_R   0.330440 0.616280 0.209834 -0.152321
C81   C     C_R   0.614211 0.667839 0.789282 -0.171919
C82   C     C_R   0.412366 0.359104 0.231695 -0.147995
C83   C     C_R   0.359057 0.586931 0.767708 -0.158528
C84   C     C_R   0.669661 0.384392 0.209988 -0.151497
C85   C     C_R   0.385449 0.331837 0.789254 -0.173561
C86   C     C_R   0.587605 0.640957 0.231912 -0.147725
C87   C     C_R   0.641038 0.587255 0.232087 -0.159936
C88   C     C_R   0.331139 0.384839 0.789594 -0.153854
C89   C     C_R   0.615548 0.331182 0.210222 -0.167242
C90   C     C_R   0.500135 0.000250 0.547305 -0.064979
C91   C     C_R   0.412529 0.640565 0.767822 -0.148356
C92   C     C_R   0.358876 0.412752 0.231816 -0.160166
C93   C     C_R   0.668503 0.614817 0.789610 -0.153718
C94   C     C_R   0.384589 0.669449 0.210086 -0.168262
C95   C     C_R   0.587080 0.359556 0.767504 -0.148843
C96   C     C_R   0.186413 0.759005 0.263235 0.070582
C97   C     C_R   0.823126 0.231485 0.744369 0.060724
C98   C     C_R   0.231602 0.177162 0.255946 0.064102
C99   C     C_R   0.759562 0.814180 0.737035 0.069049
C100  C     C_R   0.813465 0.240860 0.263227 0.070278
C101  C     C_R   0.999739 0.499811 0.452678 -0.066330
C102  C     C_R   0.176998 0.768469 0.744266 0.061530
C103  C     C_R   0.768400 0.822830 0.255875 0.063998
C104  C     C_R   0.240539 0.185923 0.737039 0.068998
C105  C     C_R   0.186290 0.240746 0.736890 0.070465
C106  C     C_R   0.822949 0.768382 0.255788 0.061466
C107  C     C_R   0.231511 0.822954 0.744222 0.064140
C108  C     C_R   0.759279 0.185979 0.263049 0.068868
C109  C     C_R   0.813819 0.759354 0.736883 0.070406
C110  C     C_R   0.177035 0.231605 0.255859 0.061349
C111  C     C_R   0.768540 0.177078 0.744251 0.063958
C112  C     C_R   0.499924 0.999788 0.810393 0.807327
C113  C     C_R   0.999964 0.499777 0.547326 -0.066359
C114  C     C_R   0.240722 0.813770 0.263117 0.069335
C115  C     C_R   0.677027 0.268597 0.755690 0.063933
C116  C     C_R   0.313744 0.740939 0.236814 0.068303
C117  C     C_R   0.740680 0.686151 0.763119 0.070395
C118  C     C_R   0.268329 0.322992 0.244107 0.061348
C119  C     C_R   0.322811 0.731475 0.755830 0.064547
C120  C     C_R   0.686297 0.259269 0.236862 0.067466
C121  C     C_R   0.259188 0.313719 0.763121 0.070387
C122  C     C_R   0.731619 0.676992 0.244214 0.061320
C123  C     C_R   0.677197 0.731568 0.244118 0.063614
C124  C     C_R   0.995899 0.495268 0.952751 -0.066432
C125  C     C_R   0.314042 0.259503 0.762951 0.069450
C126  C     C_R   0.741048 0.313592 0.236747 0.070810
C127  C     C_R   0.268375 0.676914 0.755749 0.061326
C128  C     C_R   0.322792 0.268444 0.244039 0.063374
C129  C     C_R   0.685809 0.740361 0.762946 0.068584
C130  C     C_R   0.258925 0.686686 0.236666 0.071114
C131  C     C_R   0.731512 0.323108 0.755648 0.061079
C132  C     C_R   0.195891 0.696034 0.249959 -0.161686
C133  C     C_R   0.804120 0.304051 0.750032 -0.175401
C134  C     C_R   0.304015 0.196005 0.250005 -0.174383
C135  C     C_R   0.996955 0.495805 0.047374 -0.067740
C136  C     C_R   0.695894 0.804056 0.749989 -0.160453
C137  C     C_R   0.803995 0.304076 0.250014 -0.161589
C138  C     C_R   0.195930 0.695896 0.749989 -0.175231
C139  C     C_R   0.696000 0.803997 0.250003 -0.175013
C140  C     C_R   0.304075 0.195936 0.749992 -0.161356
C141  C     C_R   0.195948 0.304020 0.750008 -0.162511
C142  C     C_R   0.804059 0.695911 0.249998 -0.174911
C143  C     C_R   0.303963 0.804028 0.750028 -0.174623
C144  C     C_R   0.695988 0.195859 0.249967 -0.160641
C145  C     C_R   0.804061 0.695968 0.750008 -0.161720
C146  C     C_R   0.497547 0.995277 0.952592 -0.065074
C147  C     C_R   0.195901 0.304080 0.249987 -0.174474
C148  C     C_R   0.695961 0.196046 0.749957 -0.175087
C149  C     C_R   0.304104 0.804049 0.250011 -0.160814
C150  C     C_R   0.438038 0.018688 0.417432 0.562448
C151  C     C_R   0.562289 0.019163 0.582551 0.562485
C152  C     C_R   0.979557 0.438032 0.417410 0.562932
C153  C     C_R   0.979843 0.561531 0.582620 0.562921
C154  C     C_R   0.562465 0.981097 0.417410 0.562579
C155  C     C_R   0.437923 0.981396 0.582620 0.562531
C156  C     C_R   0.019907 0.561604 0.417341 0.562965
C157  C     C_R   0.497237 0.999505 0.047226 -0.067102
C158  C     C_R   0.020323 0.437993 0.582636 0.563021
C159  C     C_R   0.934002 0.516787 0.917567 0.563008
C160  C     C_R   0.058622 0.519456 0.082443 0.560634
C161  C     C_R   0.478910 0.932274 0.917470 0.563277
C162  C     C_R   0.490612 0.066266 0.082264 0.565763
C163  C     C_R   0.057758 0.477179 0.917331 0.562947
C164  C     C_R   0.936013 0.476612 0.082922 0.568847
C165  C     C_R   0.517252 0.056539 0.917172 0.561686
C166  C     C_R   0.515494 0.938466 0.082787 0.564090
C167  C     C_R   0.526540 0.060870 0.370790 0.138364
C168  C     C_R   0.434327 0.012332 0.440874 -0.062644
C169  C     C_R   0.473501 0.061128 0.629179 0.138631
C170  C     C_R   0.944252 0.536625 0.370493 0.142457
C171  C     C_R   0.944732 0.462885 0.629561 0.142426
C172  C     C_R   0.473964 0.938800 0.370863 0.138420
C173  C     C_R   0.526710 0.939318 0.629182 0.138405
C174  C     C_R   0.055282 0.463063 0.370484 0.142444
C175  C     C_R   0.055608 0.536669 0.629473 0.142456
C176  C     C_R   0.033292 0.554721 0.870741 0.142610
C177  C     C_R   0.960761 0.554120 0.129537 0.147676
C178  C     C_R   0.437559 0.021835 0.870815 0.137821
C179  C     C_R   0.566009 0.012687 0.559119 -0.062712
C180  C     C_R   0.439491 0.980051 0.128928 0.124502
C181  C     C_R   0.960097 0.443457 0.870320 0.141918
C182  C     C_R   0.036207 0.444315 0.129559 0.139477
C183  C     C_R   0.559224 0.968384 0.870708 0.139348
C184  C     C_R   0.564307 0.025621 0.129313 0.155484
C185  C     C_R   0.526866 0.061344 0.347365 -0.106202
C186  C     C_R   0.473071 0.061488 0.652604 -0.106249
C187  C     C_R   0.945126 0.538413 0.347048 -0.102868
C188  C     C_R   0.945543 0.461183 0.653004 -0.102751
C189  C     C_R   0.473492 0.938410 0.347437 -0.106266
C190  C     C_R   0.986377 0.434150 0.440860 -0.063719
C191  C     C_R   0.527134 0.938861 0.652606 -0.106038
C192  C     C_R   0.054517 0.461361 0.347042 -0.102863
C193  C     C_R   0.054753 0.538473 0.652917 -0.102774
C194  C     C_R   0.036199 0.554296 0.847290 -0.102641
C195  C     C_R   0.959931 0.553870 0.152991 -0.105594
C196  C     C_R   0.437921 0.024371 0.847412 -0.105344
C197  C     C_R   0.438564 0.978171 0.152346 -0.101912
C198  C     C_R   0.959476 0.444693 0.846871 -0.102578
C199  C     C_R   0.038639 0.445638 0.152984 -0.100172
C200  C     C_R   0.560415 0.970071 0.847293 -0.107036
C201  C     C_R   0.986566 0.565423 0.559161 -0.063692
C202  C     C_R   0.563794 0.025739 0.152745 -0.113844
C203  C     C_R   0.443120 0.873666 0.335998 0.186056
C204  C     C_R   0.368837 0.871216 0.330346 -0.139547
C205  C     C_R   0.340323 0.809853 0.319582 -0.127626
C206  C     C_R   0.385878 0.751302 0.314105 -0.080655
C207  C     C_R   0.459902 0.753468 0.319702 -0.114538
C208  C     C_R   0.488471 0.814216 0.330770 -0.060676
C209  C     C_R   0.557979 0.874315 0.664089 0.185788
C210  C     C_R   0.632284 0.872389 0.669732 -0.140229
C211  C     C_R   0.661275 0.811199 0.680524 -0.128121
C212  C     C_R   0.566132 0.987616 0.440839 -0.062674
C213  C     C_R   0.616168 0.752305 0.686043 -0.080563
C214  C     C_R   0.542122 0.753947 0.680454 -0.114338
C215  C     C_R   0.513084 0.814515 0.669352 -0.060001
C216  C     C_R   0.108811 0.415888 0.335112 0.181880
C217  C     C_R   0.088874 0.346719 0.327089 -0.148296
C218  C     C_R   0.139116 0.304671 0.315121 -0.151926
C219  C     C_R   0.209233 0.331606 0.310956 -0.077511
C220  C     C_R   0.229354 0.400516 0.318863 -0.109118
C221  C     C_R   0.179402 0.442613 0.330953 -0.064168
C222  C     C_R   0.108838 0.584148 0.664810 0.182044
C223  C     C_R   0.999961 0.500038 0.189684 0.814403
C224  C     C_R   0.434241 0.987821 0.559184 -0.062651
C225  C     C_R   0.088429 0.652986 0.673011 -0.147778
C226  C     C_R   0.138439 0.695162 0.684976 -0.151953
C227  C     C_R   0.208816 0.668702 0.688954 -0.077151
C228  C     C_R   0.229411 0.600125 0.680870 -0.109432
C229  C     C_R   0.179673 0.557886 0.668794 -0.065271
C230  C     C_R   0.557114 0.126176 0.335853 0.186024
C231  C     C_R   0.631400 0.128807 0.330139 -0.139478
C232  C     C_R   0.659813 0.190300 0.319341 -0.127319
C233  C     C_R   0.614150 0.248791 0.313885 -0.080834
C234  C     C_R   0.540123 0.246447 0.319542 -0.114439
C235  C     C_R   0.013107 0.565476 0.440795 -0.063655
C236  C     C_R   0.511659 0.185579 0.330650 -0.060262
C237  C     C_R   0.442362 0.126049 0.664086 0.185697
C238  C     C_R   0.368027 0.128189 0.669754 -0.140005
C239  C     C_R   0.339170 0.189417 0.680536 -0.127996
C240  C     C_R   0.384437 0.248127 0.686023 -0.080799
C241  C     C_R   0.458514 0.246270 0.680409 -0.114342
C242  C     C_R   0.487420 0.185670 0.669315 -0.060160
C243  C     C_R   0.890941 0.583980 0.335118 0.182049
C244  C     C_R   0.911092 0.653017 0.326961 -0.148001
C245  C     C_R   0.860948 0.695169 0.315003 -0.151862
C246  C     C_R   0.013431 0.434122 0.559191 -0.063720
C247  C     C_R   0.790703 0.668480 0.310982 -0.077475
C248  C     C_R   0.770369 0.599699 0.319020 -0.109408
C249  C     C_R   0.820232 0.557492 0.331096 -0.064836
C250  C     C_R   0.891410 0.415561 0.664986 0.182043
C251  C     C_R   0.911719 0.346664 0.673201 -0.148023
C252  C     C_R   0.861610 0.304467 0.685203 -0.152007
C253  C     C_R   0.791238 0.330970 0.689208 -0.077306
C254  C     C_R   0.770752 0.399619 0.681118 -0.109193
C255  C     C_R   0.820583 0.441872 0.669000 -0.064771
C256  C     C_R   0.914598 0.390536 0.834729 0.182149
C257  C     C_R   0.930128 0.508561 0.941001 -0.064157
C258  C     C_R   0.845581 0.410421 0.826587 -0.148815
C259  C     C_R   0.803878 0.360166 0.814561 -0.152372
C260  C     C_R   0.831016 0.290094 0.810450 -0.077432
C261  C     C_R   0.899816 0.270053 0.818455 -0.108936
C262  C     C_R   0.941557 0.320011 0.830609 -0.063732
C263  C     C_R   0.085180 0.392212 0.164896 0.181719
C264  C     C_R   0.154273 0.413283 0.172677 -0.151341
C265  C     C_R   0.197381 0.363839 0.184600 -0.154561
C266  C     C_R   0.171578 0.293395 0.188964 -0.080674
C267  C     C_R   0.102735 0.272155 0.181309 -0.110136
C268  C     C_R   0.062400 0.511157 0.059037 -0.064661
C269  C     C_R   0.059582 0.321305 0.169264 -0.062314
C270  C     C_R   0.625453 0.940584 0.835746 0.185305
C271  C     C_R   0.628537 0.866499 0.829835 -0.139486
C272  C     C_R   0.690315 0.838780 0.819049 -0.126610
C273  C     C_R   0.748629 0.884948 0.813796 -0.081139
C274  C     C_R   0.745831 0.958777 0.819650 -0.114640
C275  C     C_R   0.684689 0.986533 0.830756 -0.059688
C276  C     C_R   0.629365 0.053219 0.164420 0.186384
C277  C     C_R   0.633871 0.126900 0.170711 -0.131888
C278  C     C_R   0.695644 0.152562 0.181902 -0.124665
C279  C     C_R   0.484894 0.929132 0.940935 -0.063407
C280  C     C_R   0.752626 0.104757 0.187117 -0.080204
C281  C     C_R   0.748429 0.031332 0.180880 -0.115146
C282  C     C_R   0.687198 0.005590 0.169436 -0.066693
C283  C     C_R   0.082067 0.608833 0.835561 0.182265
C284  C     C_R   0.150838 0.588587 0.827246 -0.146314
C285  C     C_R   0.192948 0.638869 0.815278 -0.150835
C286  C     C_R   0.166522 0.709390 0.811430 -0.076450
C287  C     C_R   0.098052 0.729853 0.819649 -0.109974
C288  C     C_R   0.055849 0.679816 0.831707 -0.066945
C289  C     C_R   0.913995 0.607652 0.164954 0.180749
C290  C     C_R   0.488339 0.066822 0.058714 -0.063471
C291  C     C_R   0.845214 0.586894 0.173142 -0.147446
C292  C     C_R   0.802560 0.636817 0.185026 -0.152337
C293  C     C_R   0.828523 0.707422 0.188960 -0.078840
C294  C     C_R   0.897065 0.728346 0.180896 -0.109905
C295  C     C_R   0.939742 0.678723 0.168874 -0.065467
C296  C     C_R   0.373992 0.056663 0.836016 0.186210
C297  C     C_R   0.373145 0.131308 0.830666 -0.141073
C298  C     C_R   0.312594 0.161669 0.819932 -0.129637
C299  C     C_R   0.253262 0.117606 0.814177 -0.080477
C300  C     C_R   0.253827 0.043223 0.819474 -0.114075
C301  C     C_R   0.061601 0.482831 0.940805 -0.063003
C302  C     C_R   0.313755 0.012806 0.830516 -0.059942
C303  C     C_R   0.372625 0.949455 0.163621 0.190707
C304  C     C_R   0.368971 0.875647 0.169897 -0.131625
C305  C     C_R   0.307132 0.848935 0.180904 -0.125832
C306  C     C_R   0.249150 0.895791 0.185908 -0.079419
C307  C     C_R   0.252485 0.969327 0.179673 -0.114907
C308  C     C_R   0.313870 0.996146 0.168456 -0.068811
C309  C     C_R   0.295606 0.026970 0.442151 0.172902
C310  C     C_R   0.252567 0.089144 0.446071 -0.134795
C311  C     C_R   0.183683 0.095493 0.436290 -0.123884
C312  C     C_R   0.931889 0.481408 0.059406 -0.061834
C313  C     C_R   0.157474 0.040132 0.422428 -0.117087
C314  C     C_R   0.199918 0.978028 0.418501 -0.138817
C315  C     C_R   0.268150 0.970679 0.428649 -0.075139
C316  C     C_R   0.704734 0.027161 0.557834 0.172970
C317  C     C_R   0.747900 0.089233 0.553854 -0.134781
C318  C     C_R   0.816803 0.095433 0.563627 -0.123973
C319  C     C_R   0.842905 0.040019 0.577537 -0.117247
C320  C     C_R   0.800335 0.978015 0.581523 -0.138792
C321  C     C_R   0.732076 0.970825 0.571389 -0.075326
C322  C     C_R   0.970750 0.295543 0.442178 0.172451
C323  C     C_R   0.510630 0.060811 0.940564 -0.062369
C324  C     C_R   0.908090 0.253180 0.446044 -0.134773
C325  C     C_R   0.901492 0.184075 0.436404 -0.125563
C326  C     C_R   0.957132 0.156966 0.422758 -0.119342
C327  C     C_R   0.019715 0.198757 0.418891 -0.135916
C328  C     C_R   0.027205 0.267264 0.428869 -0.073226
C329  C     C_R   0.970623 0.703998 0.557864 0.172267
C330  C     C_R   0.907824 0.746189 0.554080 -0.134649
C331  C     C_R   0.901033 0.815248 0.563746 -0.125313
C332  C     C_R   0.956620 0.842480 0.577334 -0.119077
C333  C     C_R   0.019340 0.800860 0.581119 -0.135609
C334  C     C_R   0.999730 0.499922 0.810334 0.813055
C335  C     C_R   0.508254 0.933896 0.059386 -0.061728
C336  C     C_R   0.027024 0.732406 0.571112 -0.073162
C337  C     C_R   0.704862 0.973152 0.442026 0.173014
C338  C     C_R   0.747965 0.911044 0.445987 -0.134676
C339  C     C_R   0.816912 0.904784 0.436181 -0.123982
C340  C     C_R   0.843125 0.960172 0.422259 -0.117514
C341  C     C_R   0.800617 0.022216 0.418292 -0.139054
C342  C     C_R   0.732304 0.029462 0.428456 -0.075388
C343  C     C_R   0.295546 0.973049 0.558014 0.172870
C344  C     C_R   0.252611 0.910823 0.554122 -0.134623
C345  C     C_R   0.183702 0.904395 0.563945 -0.123755
C346  C     C_R   0.368062 0.019714 0.452920 0.015112
C347  C     C_R   0.157359 0.959733 0.577819 -0.117287
C348  C     C_R   0.199699 0.021893 0.581717 -0.138867
C349  C     C_R   0.267967 0.029310 0.571531 -0.075305
C350  C     C_R   0.028991 0.704057 0.441995 0.172319
C351  C     C_R   0.091767 0.746229 0.445781 -0.134646
C352  C     C_R   0.098587 0.815323 0.436087 -0.125404
C353  C     C_R   0.043057 0.842613 0.422463 -0.119392
C354  C     C_R   0.980356 0.801012 0.418674 -0.135927
C355  C     C_R   0.972642 0.732514 0.428709 -0.073147
C356  C     C_R   0.029183 0.295530 0.557974 0.172460
C357  C     C_R   0.632276 0.020017 0.547067 0.015155
C358  C     C_R   0.091891 0.253240 0.554132 -0.134589
C359  C     C_R   0.098556 0.184102 0.563805 -0.125501
C360  C     C_R   0.042933 0.156888 0.577459 -0.119503
C361  C     C_R   0.980301 0.198609 0.581303 -0.135916
C362  C     C_R   0.972753 0.267157 0.571295 -0.073358
C363  C     C_R   0.791436 0.522905 0.942434 0.171753
C364  C     C_R   0.748337 0.584703 0.946797 -0.135935
C365  C     C_R   0.679299 0.591535 0.937150 -0.126200
C366  C     C_R   0.653027 0.537059 0.922973 -0.119590
C367  C     C_R   0.695562 0.475359 0.918597 -0.135452
C368  C     C_R   0.978613 0.367918 0.452939 0.015385
C369  C     C_R   0.763923 0.467499 0.928622 -0.072802
C370  C     C_R   0.200639 0.527730 0.057591 0.170269
C371  C     C_R   0.243421 0.589818 0.053284 -0.136385
C372  C     C_R   0.311781 0.597458 0.063315 -0.126012
C373  C     C_R   0.337513 0.543602 0.077852 -0.122058
C374  C     C_R   0.295274 0.481585 0.082132 -0.124374
C375  C     C_R   0.227895 0.472748 0.071642 -0.064867
C376  C     C_R   0.469590 0.790486 0.942582 0.172301
C377  C     C_R   0.407410 0.747531 0.946603 -0.135296
C378  C     C_R   0.401174 0.678349 0.936989 -0.124313
C379  C     C_R   0.978644 0.631644 0.547092 0.015397
C380  C     C_R   0.456641 0.651766 0.923188 -0.118003
C381  C     C_R   0.518741 0.694127 0.919159 -0.138541
C382  C     C_R   0.525990 0.762641 0.929151 -0.074546
C383  C     C_R   0.464681 0.204581 0.056062 0.183903
C384  C     C_R   0.397274 0.221187 0.066040 -0.062770
C385  C     C_R   0.384173 0.291394 0.074299 -0.124156
C386  C     C_R   0.437535 0.345597 0.072155 -0.111515
C387  C     C_R   0.503732 0.329892 0.061681 -0.150095
C388  C     C_R   0.517590 0.259592 0.053756 -0.144747
C389  C     C_R   0.200125 0.466885 0.941912 0.171481
C390  C     C_R   0.632381 0.980363 0.452843 0.015063
C391  C     C_R   0.241668 0.403391 0.945310 -0.132628
C392  C     C_R   0.310513 0.396462 0.935471 -0.123916
C393  C     C_R   0.338192 0.452655 0.922119 -0.119578
C394  C     C_R   0.297240 0.516099 0.918739 -0.135754
C395  C     C_R   0.228972 0.523850 0.928895 -0.073859
C396  C     C_R   0.794867 0.459687 0.058730 0.165114
C397  C     C_R   0.763113 0.389957 0.059232 -0.115297
C398  C     C_R   0.698565 0.378194 0.071165 -0.125038
C399  C     C_R   0.665247 0.435996 0.082499 -0.118764
C400  C     C_R   0.695993 0.505805 0.081727 -0.125738
C401  C     C_R   0.368007 0.980404 0.547189 0.015079
C402  C     C_R   0.760415 0.517881 0.069768 -0.085976
C403  C     C_R   0.525684 0.199604 0.941392 0.175258
C404  C     C_R   0.587852 0.242693 0.945166 -0.135375
C405  C     C_R   0.593846 0.311699 0.935371 -0.124525
C406  C     C_R   0.538110 0.338019 0.921652 -0.116548
C407  C     C_R   0.476008 0.295511 0.917864 -0.139750
C408  C     C_R   0.469099 0.227063 0.927991 -0.075282
C409  C     C_R   0.520135 0.794743 0.058792 0.171677
C410  C     C_R   0.583408 0.752537 0.055784 -0.131633
C411  C     C_R   0.589912 0.684530 0.066207 -0.122108
C412  C     C_R   0.020929 0.631693 0.452815 0.015344
C413  C     C_R   0.533511 0.658382 0.079751 -0.117627
C414  C     C_R   0.470248 0.699964 0.082721 -0.137795
C415  C     C_R   0.462867 0.767321 0.071968 -0.074729
C416  C     C_R   0.021223 0.367905 0.547162 0.015356
C417  C     C_R   0.863848 0.514894 0.953146 0.015932
C418  C     C_R   0.000047 0.499968 0.689680 0.813231
C419  C     C_R   0.128354 0.519231 0.046863 0.016873
C420  C     C_R   0.476769 0.863269 0.953173 0.015336
C421  C     C_R   0.477885 0.131759 0.046166 0.009684
C422  C     C_R   0.127866 0.474839 0.952778 0.014804
C423  C     C_R   0.865875 0.471079 0.047511 0.012235
C424  C     C_R   0.518434 0.127359 0.952368 0.015273
C425  C     C_R   0.513263 0.866751 0.047668 0.013831
C426  C     C_R   0.500131 0.999897 0.335325 -0.167281
C427  C     C_R   0.500076 0.000139 0.664679 -0.167202
C428  C     C_R   0.999855 0.499914 0.335120 -0.162547
C429  C     C_R   0.999951 0.499984 0.310321 0.813219
C430  C     C_R   0.000129 0.499865 0.664883 -0.162468
C431  C     C_R   0.998504 0.499635 0.835149 -0.162887
C432  C     C_R   0.999660 0.499998 0.164901 -0.162072
C433  C     C_R   0.499561 0.998309 0.835291 -0.166902
C434  C     C_R   0.500801 0.001421 0.164635 -0.168484
C435  C     C_R   0.929765 0.489315 0.011993 0.043793
C436  C     C_R   0.062863 0.491269 0.988173 0.043006
C437  C     C_R   0.498804 0.930598 0.012000 0.043520
C438  C     C_R   0.501503 0.063041 0.987825 0.043728
C439  C     C_R   0.063046 0.499832 0.011728 0.042511
C440  C     C_R   0.500015 0.000046 0.689596 0.807371
C441  C     C_R   0.929370 0.497416 0.988385 0.042861
C442  C     C_R   0.493401 0.064073 0.011348 0.043114
C443  C     C_R   0.491853 0.929720 0.988356 0.043266
C444  C     C_R   0.433444 0.996279 0.511826 0.043588
C445  C     C_R   0.566924 0.996294 0.488187 0.043601
C446  C     C_R   0.003947 0.433070 0.511819 0.043142
C447  C     C_R   0.003817 0.566516 0.488180 0.043129
C448  C     C_R   0.566898 0.004100 0.511770 0.043577
C449  C     C_R   0.433460 0.003969 0.488233 0.043570
C450  C     C_R   0.995735 0.566504 0.511774 0.043114
C451  C     C_R   0.500028 0.999960 0.310405 0.807052
C452  C     C_R   0.995753 0.433076 0.488235 0.043126
C453  C     C_R   0.996584 0.494936 0.023670 0.078730
C454  C     C_R   0.996023 0.494604 0.976463 0.078996
C455  C     C_R   0.496290 0.997994 0.023505 0.078947
C456  C     C_R   0.496990 0.995977 0.976284 0.078277
C457  C     C_R   0.500159 0.000215 0.523605 0.078343
C458  C     C_R   0.500201 0.000092 0.476403 0.078348
C459  C     C_R   0.999881 0.499784 0.523613 0.079027
C460  C     C_R   0.999765 0.499801 0.476391 0.079026
C461  C     C_R   0.865541 0.475519 0.024281 -0.262692
C462  C     C_R   0.500282 0.999820 0.382419 0.212774
C463  C     C_R   0.127508 0.479237 0.975995 -0.260959
C464  C     C_R   0.508879 0.866191 0.024465 -0.261082
C465  C     C_R   0.514535 0.127313 0.975553 -0.260610
C466  C     C_R   0.127686 0.513622 0.023672 -0.258435
C467  C     C_R   0.864441 0.508954 0.976366 -0.260379
C468  C     C_R   0.481063 0.129404 0.023001 -0.261912
C469  C     C_R   0.479934 0.864628 0.976412 -0.259562
C470  C     C_R   0.368681 0.984382 0.523975 -0.260052
C471  C     C_R   0.631703 0.984433 0.476052 -0.260043
C472  C     C_R   0.016457 0.368389 0.523945 -0.260487
H1    H     H_    0.432654 0.663152 0.199759 0.132154
H2    H     H_    0.532334 0.627205 0.227184 0.138822
H3    H     H_    0.195909 0.504576 0.662758 0.136541
H4    H     H_    0.667145 0.083559 0.334159 0.130693
H5    H     H_    0.717268 0.192797 0.315264 0.153657
H6    H     H_    0.636209 0.296029 0.305359 0.132329
H7    H     H_    0.504842 0.291857 0.315368 0.129914
H8    H     H_    0.454266 0.184269 0.335000 0.130941
H9    H     H_    0.332587 0.082766 0.665710 0.130980
H10   H     H_    0.281676 0.191540 0.684576 0.153672
H11   H     H_    0.362030 0.295157 0.694537 0.132435
H12   H     H_    0.493488 0.291849 0.684605 0.129932
H13   H     H_    0.372919 0.531442 0.772240 0.140367
H14   H     H_    0.544845 0.184733 0.664997 0.130940
H15   H     H_    0.965612 0.673903 0.329797 0.128764
H16   H     H_    0.876610 0.748450 0.308822 0.139234
H17   H     H_    0.752112 0.701018 0.301602 0.133540
H18   H     H_    0.716040 0.579007 0.315834 0.130649
H19   H     H_    0.804190 0.504042 0.337107 0.136351
H20   H     H_    0.966332 0.325921 0.670374 0.128727
H21   H     H_    0.877398 0.251297 0.691433 0.139082
H22   H     H_    0.752666 0.298394 0.698618 0.133665
H23   H     H_    0.716328 0.420172 0.684294 0.130772
H24   H     H_    0.663624 0.432211 0.199528 0.128804
H25   H     H_    0.804419 0.495221 0.662947 0.136466
H26   H     H_    0.824313 0.464780 0.829516 0.128963
H27   H     H_    0.750572 0.375593 0.808410 0.139472
H28   H     H_    0.798808 0.251405 0.801029 0.133737
H29   H     H_    0.920856 0.215861 0.815199 0.130517
H30   H     H_    0.994980 0.304166 0.836625 0.136080
H31   H     H_    0.174482 0.467962 0.169568 0.129650
H32   H     H_    0.250711 0.380204 0.190489 0.139290
H33   H     H_    0.204859 0.255338 0.198311 0.133579
H34   H     H_    0.082727 0.217677 0.184764 0.130238
H35   H     H_    0.565900 0.661185 0.799484 0.132455
H36   H     H_    0.006091 0.304569 0.163550 0.136687
H37   H     H_    0.583439 0.830365 0.833704 0.130849
H38   H     H_    0.693186 0.781465 0.814833 0.153860
H39   H     H_    0.796089 0.863423 0.805279 0.132310
H40   H     H_    0.791111 0.994444 0.815638 0.129970
H41   H     H_    0.683046 0.043765 0.835275 0.131140
H42   H     H_    0.589749 0.164253 0.166907 0.129747
H43   H     H_    0.699471 0.209516 0.186500 0.152177
H44   H     H_    0.800098 0.124672 0.195935 0.131683
H45   H     H_    0.792633 0.994383 0.184897 0.129713
H46   H     H_    0.467657 0.372908 0.226944 0.138614
H47   H     H_    0.684359 0.948604 0.164694 0.130808
H48   H     H_    0.171469 0.533826 0.829918 0.127974
H49   H     H_    0.245949 0.623077 0.808928 0.138170
H50   H     H_    0.199007 0.748082 0.802035 0.133331
H51   H     H_    0.077553 0.784392 0.816591 0.130940
H52   H     H_    0.002562 0.695919 0.837809 0.136917
H53   H     H_    0.824871 0.532113 0.170359 0.129952
H54   H     H_    0.749430 0.620715 0.191203 0.139679
H55   H     H_    0.795593 0.745850 0.198280 0.133464
H56   H     H_    0.917180 0.782966 0.184005 0.130355
H57   H     H_    0.626660 0.468653 0.771888 0.140780
H58   H     H_    0.992961 0.695253 0.162814 0.135761
H59   H     H_    0.419065 0.165824 0.834916 0.131194
H60   H     H_    0.311491 0.219393 0.816134 0.153509
H61   H     H_    0.206762 0.141178 0.805697 0.132604
H62   H     H_    0.207772 0.009178 0.815067 0.129852
H63   H     H_    0.313705 0.955148 0.834580 0.130798
H64   H     H_    0.413891 0.839049 0.166271 0.128402
H65   H     H_    0.304069 0.791923 0.185545 0.150935
H66   H     H_    0.201595 0.875067 0.194573 0.131509
H67   H     H_    0.207529 0.005547 0.183539 0.129639
H68   H     H_    0.336521 0.568624 0.199344 0.128025
H69   H     H_    0.316105 0.053241 0.163756 0.129333
H70   H     H_    0.272441 0.132619 0.456670 0.134251
H71   H     H_    0.150811 0.143435 0.439470 0.134673
H72   H     H_    0.104274 0.045206 0.414768 0.115619
H73   H     H_    0.179851 0.935386 0.407662 0.135725
H74   H     H_    0.300112 0.921830 0.425729 0.146353
H75   H     H_    0.728113 0.132738 0.543214 0.134174
H76   H     H_    0.849779 0.143295 0.560403 0.134757
H77   H     H_    0.896125 0.044972 0.585187 0.115684
H78   H     H_    0.820327 0.935319 0.592392 0.135934
H79   H     H_    0.968662 0.126621 0.728126 0.140659
H80   H     H_    0.700020 0.922046 0.574353 0.146569
H81   H     H_    0.864512 0.273690 0.456524 0.134254
H82   H     H_    0.853199 0.151691 0.439559 0.135535
H83   H     H_    0.951969 0.103540 0.415241 0.116417
H84   H     H_    0.062650 0.177919 0.408262 0.138097
H85   H     H_    0.076533 0.298568 0.426100 0.150559
H86   H     H_    0.864279 0.725575 0.543649 0.134324
H87   H     H_    0.852626 0.847492 0.560658 0.135374
H88   H     H_    0.951307 0.895865 0.584875 0.116363
H89   H     H_    0.062218 0.821782 0.591712 0.137903
H90   H     H_    0.067717 0.836672 0.300384 0.128858
H91   H     H_    0.076448 0.701230 0.573820 0.150495
H92   H     H_    0.728101 0.867562 0.456639 0.134214
H93   H     H_    0.849837 0.856900 0.439396 0.134686
H94   H     H_    0.896385 0.955169 0.414586 0.115669
H95   H     H_    0.820710 0.064911 0.407421 0.136249
H96   H     H_    0.700294 0.078269 0.425509 0.146538
H97   H     H_    0.272583 0.867372 0.543511 0.134271
H98   H     H_    0.150913 0.856414 0.560784 0.134508
H99   H     H_    0.104132 0.954600 0.585508 0.115645
H100  H     H_    0.179516 0.064534 0.592557 0.136099
H101  H     H_    0.838639 0.934169 0.700493 0.132420
H102  H     H_    0.299847 0.078202 0.574428 0.146531
H103  H     H_    0.135267 0.725580 0.456242 0.134326
H104  H     H_    0.146971 0.847549 0.439184 0.135272
H105  H     H_    0.048399 0.896031 0.414901 0.116327
H106  H     H_    0.937503 0.821994 0.408063 0.138249
H107  H     H_    0.923232 0.701353 0.425999 0.150604
H108  H     H_    0.135449 0.273823 0.543641 0.134275
H109  H     H_    0.146882 0.151775 0.560665 0.135396
H110  H     H_    0.048144 0.103429 0.585000 0.116419
H111  H     H_    0.937364 0.177677 0.591931 0.138409
H112  H     H_    0.531635 0.373509 0.772024 0.139254
H113  H     H_    0.127181 0.032097 0.272930 0.138825
H114  H     H_    0.923385 0.298402 0.574043 0.150669
H115  H     H_    0.768232 0.627451 0.957663 0.133966
H116  H     H_    0.646339 0.639125 0.940703 0.135636
H117  H     H_    0.599674 0.542424 0.915437 0.116069
H118  H     H_    0.675386 0.433347 0.907549 0.138246
H119  H     H_    0.795757 0.418771 0.925473 0.151096
H120  H     H_    0.223705 0.632263 0.042243 0.133237
H121  H     H_    0.344512 0.645307 0.059853 0.134996
H122  H     H_    0.390175 0.549720 0.085766 0.116044
H123  H     H_    0.314640 0.440284 0.093580 0.127753
H124  H     H_    0.031746 0.873265 0.727805 0.140354
H125  H     H_    0.196314 0.423822 0.074749 0.147124
H126  H     H_    0.363846 0.767698 0.957150 0.133984
H127  H     H_    0.353241 0.645530 0.940249 0.134544
H128  H     H_    0.451653 0.598338 0.915655 0.115908
H129  H     H_    0.561479 0.673775 0.908371 0.136713
H130  H     H_    0.574854 0.794521 0.926160 0.146557
H131  H     H_    0.355273 0.179788 0.067451 0.138450
H132  H     H_    0.332509 0.303884 0.082190 0.136904
H133  H     H_    0.427769 0.399991 0.078430 0.120962
H134  H     H_    0.543987 0.372445 0.059513 0.132252
H135  H     H_    0.931845 0.162776 0.300338 0.128817
H136  H     H_    0.569113 0.248155 0.045594 0.128231
H137  H     H_    0.220679 0.359381 0.955552 0.134980
H138  H     H_    0.342247 0.347468 0.938225 0.135064
H139  H     H_    0.391400 0.447216 0.914443 0.116391
H140  H     H_    0.318517 0.559461 0.908332 0.138738
H141  H     H_    0.198251 0.573743 0.926465 0.150452
H142  H     H_    0.789155 0.344614 0.050805 0.134988
H143  H     H_    0.674729 0.324135 0.071791 0.146709
H144  H     H_    0.615661 0.426693 0.091910 0.129006
H145  H     H_    0.670368 0.550334 0.090616 0.130966
H146  H     H_    0.161799 0.066259 0.700506 0.132393
H147  H     H_    0.784397 0.571955 0.069523 0.142033
H148  H     H_    0.631525 0.222826 0.955699 0.133777
H149  H     H_    0.641762 0.344604 0.938468 0.135066
H150  H     H_    0.542868 0.391369 0.914007 0.115742
H151  H     H_    0.433025 0.315713 0.907163 0.134909
H152  H     H_    0.420229 0.195067 0.925203 0.146166
H153  H     H_    0.627697 0.772502 0.045470 0.134048
H154  H     H_    0.638818 0.652317 0.063828 0.128762
H155  H     H_    0.538760 0.605931 0.087929 0.115639
H156  H     H_    0.426810 0.679997 0.093329 0.136314
H157  H     H_    0.872808 0.967846 0.272680 0.138925
H158  H     H_    0.413340 0.798799 0.074240 0.146421
H159  H     H_    0.968044 0.872857 0.272469 0.140346
H160  H     H_    0.067391 0.162504 0.700035 0.128989
H161  H     H_    0.837581 0.066413 0.299804 0.132386
H162  H     H_    0.126857 0.968309 0.727698 0.139069
H163  H     H_    0.031927 0.127063 0.272714 0.140184
H164  H     H_    0.372640 0.468148 0.227128 0.140105
H165  H     H_    0.933004 0.837886 0.699992 0.128803
H166  H     H_    0.162222 0.932821 0.299965 0.132249
H167  H     H_    0.873402 0.031722 0.727866 0.139239
H168  H     H_    0.270674 0.920301 0.276825 0.117326
H169  H     H_    0.747931 0.061577 0.736876 0.134336
H170  H     H_    0.061380 0.252137 0.263078 0.137700
H171  H     H_    0.919404 0.728390 0.722640 0.111241
H172  H     H_    0.729411 0.079109 0.276645 0.117434
H173  H     H_    0.252140 0.938563 0.736900 0.134404
H174  H     H_    0.938586 0.747822 0.262939 0.137839
H175  H     H_    0.662243 0.566885 0.800013 0.129086
H176  H     H_    0.080811 0.271818 0.722669 0.111305
H177  H     H_    0.270324 0.079076 0.723496 0.117346
H178  H     H_    0.747618 0.938252 0.263331 0.133924
H179  H     H_    0.061369 0.747992 0.737102 0.137846
H180  H     H_    0.918666 0.272056 0.277583 0.111358
H181  H     H_    0.729910 0.921152 0.723495 0.117348
H182  H     H_    0.252391 0.061736 0.263471 0.133873
H183  H     H_    0.938979 0.251836 0.737373 0.138509
H184  H     H_    0.080960 0.727777 0.277541 0.111280
H185  H     H_    0.751934 0.438870 0.762732 0.138368
H186  H     H_    0.567574 0.337596 0.199904 0.132250
H187  H     H_    0.227669 0.581478 0.222290 0.111223
H188  H     H_    0.578805 0.769910 0.776454 0.117411
H189  H     H_    0.438166 0.247692 0.236508 0.133824
H190  H     H_    0.247831 0.561141 0.762882 0.137754
H191  H     H_    0.772300 0.419085 0.222443 0.111283
H192  H     H_    0.420928 0.229838 0.776445 0.117358
H193  H     H_    0.561882 0.752399 0.236605 0.133886
H194  H     H_    0.752164 0.561280 0.237089 0.138008
H195  H     H_    0.228009 0.419159 0.777388 0.111171
H196  H     H_    0.579930 0.229209 0.223097 0.116958
H197  H     H_    0.467875 0.626632 0.772414 0.138861
H198  H     H_    0.438240 0.752075 0.763217 0.134125
H199  H     H_    0.247690 0.438638 0.236833 0.137657
H200  H     H_    0.771729 0.580588 0.777387 0.111336
H201  H     H_    0.420202 0.771173 0.223024 0.116823
H202  H     H_    0.561409 0.248078 0.762959 0.134679
H203  H     H_    0.814021 0.465738 0.016106 0.141264
H204  H     H_    0.179136 0.471159 0.984277 0.142117
H205  H     H_    0.515603 0.813891 0.016479 0.140417
H206  H     H_    0.523516 0.178978 0.983739 0.140463
H207  H     H_    0.179037 0.522082 0.015224 0.141239
H208  H     H_    0.627249 0.531857 0.227472 0.140323
H209  H     H_    0.812804 0.515655 0.984801 0.140699
H210  H     H_    0.470319 0.179915 0.014297 0.144846
H211  H     H_    0.471305 0.813297 0.984841 0.139933
H212  H     H_    0.317102 0.976189 0.515705 0.140573
H213  H     H_    0.683301 0.976362 0.484330 0.140535
H214  H     H_    0.024591 0.316806 0.515633 0.141064
H215  H     H_    0.024383 0.682785 0.484342 0.141094
H216  H     H_    0.683249 0.024131 0.515541 0.140521
H217  H     H_    0.317102 0.023946 0.484445 0.140562
H218  H     H_    0.975047 0.682754 0.515527 0.141090
H219  H     H_    0.337307 0.432676 0.799996 0.128848
H220  H     H_    0.975221 0.316798 0.484507 0.141053
H221  H     H_    0.333180 0.916516 0.334381 0.130606
H222  H     H_    0.282874 0.807508 0.315545 0.153394
H223  H     H_    0.363739 0.704162 0.305608 0.132268
H224  H     H_    0.495101 0.708017 0.315510 0.129920
H225  H     H_    0.545864 0.815399 0.335068 0.130964
H226  H     H_    0.667598 0.917956 0.665664 0.130883
H227  H     H_    0.718748 0.809252 0.684546 0.153579
H228  H     H_    0.638676 0.705304 0.694565 0.132482
H229  H     H_    0.507272 0.708228 0.684676 0.129925
H230  H     H_    0.433701 0.338431 0.799434 0.132345
H231  H     H_    0.455681 0.815289 0.665056 0.131007
H232  H     H_    0.034448 0.325650 0.330035 0.129079
H233  H     H_    0.123623 0.251286 0.309040 0.139363
H234  H     H_    0.247896 0.299152 0.301566 0.133550
H235  H     H_    0.283583 0.421399 0.315565 0.130534
H236  H     H_    0.195269 0.496171 0.336858 0.136149
H237  H     H_    0.033801 0.673682 0.670213 0.128647
H238  H     H_    0.122563 0.748273 0.691203 0.138725
H239  H     H_    0.247306 0.701255 0.698339 0.133519
H240  H     H_    0.283840 0.579605 0.684025 0.130766
I1    I     I_    0.434816 0.846793 0.389389 -0.355667
I2    I     I_    0.089291 0.358687 0.111539 -0.389702
I3    I     I_    0.650501 0.927421 0.889106 -0.354984
I4    I     I_    0.659445 0.058759 0.111180 -0.317382
I5    I     I_    0.085400 0.639954 0.889142 -0.365484
I6    I     I_    0.904761 0.637719 0.111404 -0.355708
I7    I     I_    0.345448 0.060457 0.889359 -0.357182
I8    I     I_    0.345691 0.947207 0.110211 -0.376885
I9    I     I_    0.566320 0.847524 0.610721 -0.356380
I10   I     I_    0.140918 0.410194 0.388549 -0.366970
I11   I     I_    0.141113 0.589732 0.611328 -0.367029
I12   I     I_    0.565728 0.152853 0.389208 -0.355803
I13   I     I_    0.433935 0.153007 0.610710 -0.355694
I14   I     I_    0.858612 0.589534 0.388583 -0.366623
I15   I     I_    0.859200 0.409816 0.611551 -0.367072
I16   I     I_    0.907029 0.357002 0.888058 -0.369232
N1    N     N_R   0.500255 0.999838 0.406357 -0.325748
N2    N     N_R   0.500100 0.000284 0.593650 -0.325766
N3    N     N_R   0.999722 0.499823 0.406226 -0.325430
N4    N     N_R   0.000140 0.499765 0.593778 -0.325451
N5    N     N_R   0.995946 0.497709 0.906291 -0.325315
N6    N     N_R   0.997572 0.498446 0.093824 -0.325931
N7    N     N_R   0.498152 0.994190 0.906266 -0.325826
N8    N     N_R   0.503111 0.002803 0.093553 -0.324901
O1    O     O_3   0.500000 1.000000 0.250000 -0.477293
O2    O     O_R   0.439130 1.000000 0.799610 -0.635986
O3    O     O_R   0.000000 0.560870 0.200390 -0.635002
O4    O     O_R   0.000000 0.439130 0.799610 -0.635277
O5    O     O_R   0.939130 0.500000 0.700390 -0.634491
O6    O     O_R   0.060870 0.500000 0.299610 -0.634650
O7    O     O_R   0.500000 0.939130 0.700390 -0.635525
O8    O     O_R   0.500000 0.060870 0.299610 -0.635602
O9    O     O_R   0.060870 0.500000 0.700390 -0.634765
O10   O     O_R   0.939130 0.500000 0.299610 -0.634883
O11   O     O_R   0.500000 0.060870 0.700390 -0.635941
O12   O     O_3   0.500000 0.000000 0.750000 -0.477201
O13   O     O_R   0.500000 0.939130 0.299610 -0.635832
O14   O     O_R   0.646010 0.914780 0.237240 -0.643081
O15   O     O_R   0.353990 0.085220 0.762760 -0.635813
O16   O     O_R   0.085220 0.646010 0.237240 -0.641354
O17   O     O_R   0.914780 0.353990 0.762760 -0.637385
O18   O     O_R   0.353990 0.085220 0.237240 -0.642857
O19   O     O_R   0.646010 0.914780 0.762760 -0.635718
O20   O     O_R   0.914780 0.353990 0.237240 -0.641008
O21   O     O_R   0.085220 0.646010 0.762760 -0.636786
O22   O     O_R   0.646010 0.085220 0.762760 -0.643065
O23   O     O_3   0.000000 0.500000 0.250000 -0.479426
O24   O     O_R   0.353990 0.914780 0.237240 -0.635829
O25   O     O_R   0.085220 0.353990 0.762760 -0.641554
O26   O     O_R   0.914780 0.646010 0.237240 -0.636971
O27   O     O_R   0.353990 0.914780 0.762760 -0.643716
O28   O     O_R   0.646010 0.085220 0.237240 -0.636354
O29   O     O_R   0.914780 0.646010 0.762760 -0.641234
O30   O     O_R   0.085220 0.353990 0.237240 -0.636902
O31   O     O_R   0.146010 0.414780 0.737240 -0.641217
O32   O     O_R   0.853990 0.585220 0.262760 -0.637089
O33   O     O_R   0.585220 0.146010 0.737240 -0.643812
O34   O     O_3   0.000000 0.500000 0.750000 -0.479333
O35   O     O_R   0.414780 0.853990 0.262760 -0.635722
O36   O     O_R   0.853990 0.585220 0.737240 -0.641237
O37   O     O_R   0.146010 0.414780 0.262760 -0.636961
O38   O     O_R   0.414780 0.853990 0.737240 -0.643224
O39   O     O_R   0.585220 0.146010 0.262760 -0.635221
O40   O     O_R   0.146010 0.585220 0.262760 -0.641038
O41   O     O_R   0.853990 0.414780 0.737240 -0.636782
O42   O     O_R   0.585220 0.853990 0.262760 -0.643271
O43   O     O_R   0.414780 0.146010 0.737240 -0.636000
O44   O     O_R   0.853990 0.414780 0.262760 -0.641548
O45   O     O_R   0.439130 0.000000 0.200390 -0.634445
O46   O     O_R   0.146010 0.585220 0.737240 -0.637052
O47   O     O_R   0.414780 0.146010 0.262760 -0.643235
O48   O     O_R   0.585220 0.853990 0.737240 -0.635853
O49   O     O_2   0.380827 0.044116 0.405641 -0.540759
O50   O     O_2   0.619472 0.044709 0.594308 -0.540583
O51   O     O_2   0.952619 0.381260 0.405744 -0.538673
O52   O     O_2   0.952854 0.618262 0.594322 -0.538605
O53   O     O_2   0.619723 0.955651 0.405611 -0.540629
O54   O     O_2   0.380723 0.955878 0.594450 -0.540648
O55   O     O_2   0.046852 0.618371 0.405601 -0.538693
O56   O     O_R   0.560870 1.000000 0.799610 -0.635711
O57   O     O_2   0.047335 0.381226 0.594339 -0.538524
O58   O     O_2   0.877105 0.544051 0.906020 -0.538198
O59   O     O_2   0.114676 0.548853 0.093868 -0.539583
O60   O     O_2   0.453357 0.874891 0.905797 -0.540047
O61   O     O_2   0.481961 0.128344 0.094011 -0.549777
O62   O     O_2   0.114633 0.451088 0.905488 -0.538979
O63   O     O_2   0.879580 0.450425 0.094962 -0.534656
O64   O     O_2   0.543093 0.113419 0.905246 -0.541452
O65   O     O_2   0.535855 0.879884 0.094903 -0.542230
O66   O     O_R   0.000000 0.439130 0.200390 -0.634792
O67   O     O_R   0.000000 0.560870 0.799610 -0.633713
O68   O     O_R   0.560870 0.000000 0.200390 -0.635157
Zn1   Zn    Zn3+2 0.500000 0.913460 0.269040 0.958254
Zn2   Zn    Zn3+2 0.000000 0.586540 0.230960 0.961065
Zn3   Zn    Zn3+2 0.586540 1.000000 0.769040 0.958007
Zn4   Zn    Zn3+2 0.413460 1.000000 0.230960 0.958198
Zn5   Zn    Zn3+2 0.000000 0.586540 0.769040 0.960987
Zn6   Zn    Zn3+2 1.000000 0.413460 0.230960 0.960839
Zn7   Zn    Zn3+2 0.413460 1.000000 0.769040 0.958042
Zn8   Zn    Zn3+2 0.586540 1.000000 0.230960 0.957925
Zn9   Zn    Zn3+2 0.500000 0.086540 0.730960 0.958052
Zn10  Zn    Zn3+2 0.086540 0.500000 0.269040 0.960529
Zn11  Zn    Zn3+2 0.913460 0.500000 0.730960 0.960537
Zn12  Zn    Zn3+2 0.500000 0.086540 0.269040 0.958031
Zn13  Zn    Zn3+2 0.500000 0.913460 0.730960 0.958034
Zn14  Zn    Zn3+2 0.913460 0.500000 0.269040 0.960633
Zn15  Zn    Zn3+2 0.086540 0.500000 0.730960 0.960784
Zn16  Zn    Zn3+2 0.000000 0.413460 0.769040 0.960258

loop_
_geom_bond_atom_site_label_1
_geom_bond_atom_site_label_2
_ccdc_geom_bond_type
C322  C324  A    
C10   O16   A    
C62   H167  S    
C40   H182  S    
C411  C413  A    
C160  O59   S    
C51   C123  A    
C23   O36   A    
C291  C292  A    
O66   Zn6   S    
C12   O47   A    
C31   H173  S    
C377  H126  S    
C425  C464  A    
C340  H94   S    
C337  C338  A    
C161  O60   S    
C47   C128  A    
C315  H74   S    
C55   C119  A    
C189  C203  S    
C439  C466  A    
C200  C270  S    
C9    O43   A    
O23   Zn2   S    
C218  H233  S    
C200  C433  A    
C98   C110  A    
C254  H23   S    
C29   C109  A    
C284  C285  A    
C217  H232  S    
O9    Zn15  S    
C279  C420  A    
C387  H134  S    
C256  C262  A    
C40   C98   A    
C37   C102  A    
C471  H213  S    
C376  C382  A    
O32   Zn14  S    
C156  C235  A    
C44   C130  A    
C271  C272  A    
C167  C185  A    
C159  O58   S    
C119  C143  A    
C244  C245  A    
C274  C275  A    
C438  C442  A    
C39   C74   A    
C269  H36   S    
C24   C171  A    
C116  C149  A    
C241  H12   S    
C154  C212  A    
C445  C471  A    
C397  H142  S    
C310  C311  A    
C314  H73   S    
C52   C122  A    
C55   H198  S    
C66   C72   A    
C47   H189  S    
C222  C229  A    
C324  C325  A    
C120  C144  A    
C170  C187  A    
C223  C432  S    
C150  O49   S    
C230  C236  A    
C372  H121  S    
C113  C201  A    
C441  C454  A    
C436  C463  A    
C36   C71   A    
C33   C69   A    
O31   Zn15  S    
C172  C462  A    
C163  O62   S    
C257  C417  A    
C19   C141  S    
C204  C205  A    
C96   C114  A    
C68   N8    S    
C234  C236  A    
O47   Zn12  S    
C228  C229  A    
C419  C466  A    
C106  C142  A    
C153  C201  A    
C64   H165  S    
C79   C212  A    
C109  C145  A    
C267  H34   S    
C330  C331  A    
C71   H157  S    
O23   Zn6   S    
C187  C428  A    
C464  H205  S    
C251  C252  A    
C437  C464  A    
C438  C456  A    
C340  C341  A    
C38   C100  A    
C185  C426  A    
C396  C402  A    
C308  H69   S    
C206  C207  A    
C282  H47   S    
C435  C453  A    
C415  H158  S    
C314  C315  A    
C239  H10   S    
C115  C148  A    
C173  C191  A    
C57   C178  A    
C104  C140  A    
C1    O68   A    
C316  C317  A    
C406  H150  S    
C409  C415  A    
C342  H96   S    
C26   C114  A    
C82   H46   S    
O30   Zn6   S    
C417  C467  A    
C4    C448  A    
C151  C179  A    
C227  C228  A    
O16   Zn2   S    
C352  C353  A    
C306  C307  A    
C151  N2    A    
C25   C147  S    
C26   H168  S    
C13   N3    S    
C154  N1    A    
C202  C434  A    
O34   Zn16  S    
C54   C89   A    
C237  C242  A    
C380  H128  S    
C193  C222  S    
C231  C232  A    
C124  C257  A    
C378  H127  S    
C70   H146  S    
C381  C382  A    
C11   O17   A    
O5    Zn11  S    
C362  H114  S    
C447  C460  A    
C226  H238  S    
C107  C143  A    
C383  C384  A    
C124  C454  A    
C108  C144  A    
C207  H224  S    
C333  C336  A    
C198  C256  S    
C219  H234  S    
C205  C206  A    
C15   O20   A    
C68   C184  A    
C444  C470  A    
C189  C426  A    
C177  C195  A    
C283  C288  A    
C214  C215  A    
C31   C107  A    
C26   C61   A    
C154  O53   S    
C16   C138  S    
C182  C199  A    
C374  H123  S    
C93   H175  S    
C16   O46   A    
O18   Zn4   S    
C418  C430  S    
O34   Zn11  S    
C35   C181  A    
C83   C91   A    
C393  C394  A    
O3    Zn2   S    
C18   C149  S    
C43   C131  A    
C85   H230  S    
C280  C281  A    
C365  C366  A    
C48   C127  A    
C32   H174  S    
C224  C401  A    
C370  C419  S    
C84   H24   S    
C276  C282  A    
C17   O22   A    
C30   H172  S    
C450  C459  A    
C161  N7    A    
C344  H97   S    
C150  N1    A    
C10   O40   A    
C99   C136  A    
C385  H132  S    
C223  O3    A    
C58   C117  A    
C350  C351  A    
C383  C388  A    
C318  H76   S    
C394  C395  A    
C2    C169  A    
C233  H6    S    
C60   C95   A    
O21   Zn5   S    
C21   O38   A    
C116  C130  A    
C76   H79   S    
C350  C412  S    
C361  C362  A    
C360  C361  A    
C359  C360  A    
C38   H180  S    
C214  H229  S    
C83   H13   S    
C248  H18   S    
C409  C410  A    
C111  C148  A    
C446  C472  A    
C56   H199  S    
C175  C193  A    
C365  H116  S    
C243  C244  A    
C380  C381  A    
C157  C455  A    
O36   Zn11  S    
O14   Zn8   S    
C323  C424  A    
C160  N6    A    
C443  C469  A    
C440  O11   A    
C48   H190  S    
C198  C431  A    
C82   C92   A    
C351  C352  A    
C97   C133  A    
C79   C458  A    
C4    C357  A    
O56   Zn3   S    
C370  C371  A    
C309  C315  A    
C410  H153  S    
O20   Zn6   S    
C337  C390  S    
O8    Zn12  S    
C29   H171  S    
C16   O21   A    
C177  I6    S    
C296  C302  A    
C49   C126  A    
C194  C283  S    
C209  C215  A    
O42   Zn1   S    
C423  C461  A    
C49   C84   A    
C118  C147  A    
O12   Zn3   S    
C54   C120  A    
C155  O54   S    
C128  C134  A    
C35   N5    S    
C54   H196  S    
C261  C262  A    
C9    C140  S    
C14   O48   A    
C446  C459  A    
C53   H195  S    
O19   Zn3   S    
C399  C400  A    
C152  N3    A    
C123  C139  A    
C444  C457  A    
C319  H77   S    
C281  H45   S    
C364  C365  A    
C5    C449  A    
C241  C242  A    
C327  H84   S    
C348  C349  A    
C153  N4    A    
C124  C301  A    
C366  C367  A    
C20   O26   A    
C329  C336  A    
C322  C328  A    
C61   C77   A    
C264  C265  A    
C101  C460  A    
C256  C258  A    
C9    O15   A    
C152  C190  A    
C61   H166  S    
C286  H50   S    
C452  C460  A    
O29   Zn5   S    
C233  C234  A    
C67   C71   A    
C337  C342  A    
C436  C439  A    
C446  C452  A    
C220  H235  S    
C27   C111  A    
C159  C257  A    
C12   C134  S    
C277  C278  A    
C46   C177  A    
C69   C70   A    
C272  H38   S    
C236  H8    S    
C369  H119  S    
C220  C221  A    
C273  C274  A    
C125  C140  A    
C300  H62   S    
C194  C431  A    
C100  C108  A    
C166  C335  A    
C49   H191  S    
C287  H51   S    
C17   C148  S    
C404  C405  A    
C400  C402  A    
C15   O44   A    
C403  C424  S    
O12   Zn7   S    
C157  C290  A    
C347  H99   S    
C272  C273  A    
C222  C225  A    
C28   C110  A    
C217  C218  A    
C317  H75   S    
C178  C196  A    
C438  C465  A    
C390  C471  A    
C112  C433  S    
C201  C379  A    
C238  H9    S    
C358  H108  S    
C445  C448  A    
C208  H225  S    
C28   C63   A    
C22   O28   A    
C293  C294  A    
C59   H201  S    
C27   C62   A    
C164  N6    A    
C399  H144  S    
C186  C237  S    
C25   O37   A    
C356  C416  S    
C39   C99   A    
C87   H208  S    
C326  H83   S    
C467  H209  S    
C356  C358  A    
C209  C210  A    
C377  C378  A    
C472  H214  S    
C102  C107  A    
C329  C330  A    
C50   C125  A    
C259  H27   S    
C407  H151  S    
O35   Zn1   S    
C410  C411  A    
C72   H124  S    
C191  C209  S    
C32   C67   A    
C24   N4    S    
C202  C276  S    
C127  C138  A    
C160  C268  A    
C175  I11   S    
C311  C313  A    
O23   Zn10  S    
C135  C268  A    
C41   C97   A    
C442  C455  A    
C223  O66   A    
O6    Zn10  S    
C331  H87   S    
C316  C357  S    
C225  H237  S    
C309  C346  S    
C428  C429  S    
C88   H219  S    
C85   C88   A    
C19   O31   A    
C229  H3    S    
C273  H39   S    
C164  O63   S    
C406  C407  A    
C100  C137  A    
C262  H30   S    
C370  C375  A    
C260  C261  A    
C152  O51   S    
C303  C308  A    
C164  C312  A    
C8    O14   A    
C420  C469  A    
O1    Zn4   S    
C391  H137  S    
O37   Zn10  S    
C246  C416  A    
C183  C200  A    
C157  C335  A    
C48   C83   A    
C443  C456  A    
C266  H33   S    
C322  C368  S    
O39   Zn12  S    
C46   C182  A    
C403  C408  A    
C75   H113  S    
C180  I8    S    
C167  C462  A    
C268  C419  A    
C42   H184  S    
C210  H226  S    
C63   C75   A    
C400  H145  S    
C215  H231  S    
C470  H212  S    
C228  H240  S    
C305  H65   S    
C240  C241  A    
C247  H17   S    
C288  H52   S    
C156  N3    A    
C28   H170  S    
C151  O50   S    
C10   C132  S    
C91   H197  S    
C30   C65   A    
C401  C470  A    
C50   H192  S    
C263  C269  A    
C344  C345  A    
C354  H106  S    
C42   C77   A    
C226  C227  A    
C283  C284  A    
C122  C142  A    
C252  C253  A    
C320  H78   S    
C15   C137  S    
C36   H178  S    
O10   Zn14  S    
C386  H133  S    
C146  C279  A    
C174  C192  A    
C119  C127  A    
C405  H149  S    
C465  H206  S    
C435  C461  A    
C126  C137  A    
C45   C129  A    
C413  C414  A    
C243  C249  A    
C271  H37   S    
C285  H49   S    
C77   H90   S    
O28   Zn8   S    
C18   O24   A    
C332  H88   S    
C343  C344  A    
C20   O32   A    
C62   C76   A    
O12   Zn9   S    
C45   C81   A    
C353  C354  A    
C437  C443  A    
C263  C264  A    
C341  H95   S    
C213  C214  A    
C7    C368  A    
C43   C78   A    
C165  N7    A    
C398  H143  S    
C439  C453  A    
O1    Zn8   S    
C171  C188  A    
C36   C103  A    
C42   C96   A    
C424  C465  A    
C58   C93   A    
C169  C186  A    
C110  C147  A    
C3    C447  A    
C184  I4    S    
C2    C173  A    
C57   N7    S    
C294  C295  A    
C97   C111  A    
C120  C126  A    
C1    O45   A    
C52   H194  S    
C371  C372  A    
C99   C109  A    
C411  H154  S    
O22   Zn3   S    
C361  H111  S    
C301  C422  A    
C190  C368  A    
C181  I16   S    
C281  C282  A    
C155  N2    A    
C117  C145  A    
C1    C434  S    
C227  H239  S    
C216  C221  A    
C104  C105  A    
C55   C91   A    
C50   C85   A    
C22   C144  S    
C451  O13   A    
C158  O57   S    
C382  H130  S    
C440  O7    A    
C59   C116  A    
C329  C379  S    
C381  H129  S    
O12   Zn13  S    
C60   H202  S    
C363  C364  A    
C441  C467  A    
C59   C94   A    
C351  H103  S    
C197  C434  A    
C345  C347  A    
C29   C64   A    
C34   C70   A    
O15   Zn7   S    
C234  H7    S    
C195  C432  A    
C188  C430  A    
C414  H156  S    
C367  H118  S    
C307  H67   S    
C13   C174  A    
C270  C275  A    
C51   C86   A    
C3    C412  A    
C39   H181  S    
C313  H72   S    
C300  C302  A    
C451  O8    A    
O25   Zn16  S    
C304  H64   S    
C244  H15   S    
C89   H186  S    
C13   C170  A    
C112  O2    A    
C429  O6    A    
C207  C208  A    
C121  C141  A    
C44   C80   A    
C33   C105  A    
C396  C397  A    
C187  C243  S    
C206  H223  S    
C161  C279  A    
C166  N8    A    
C219  C220  A    
C86   C87   A    
C274  H40   S    
C250  C251  A    
C309  C310  A    
O27   Zn7   S    
C307  C308  A    
C235  C412  A    
C130  C132  A    
C299  C300  A    
C90   C224  A    
C254  C255  A    
C185  C230  S    
C232  H5    S    
C245  H16   S    
C287  C288  A    
C299  H61   S    
C78   C95   A    
C383  C421  S    
C302  H63   S    
C11   O41   A    
C367  C369  A    
C289  C295  A    
O48   Zn13  S    
C252  H21   S    
C5    H217  S    
C135  C312  A    
C170  I14   S    
C196  C296  S    
C193  C430  A    
C316  C321  A    
C389  C395  A    
C461  H203  S    
C245  C247  A    
C414  C415  A    
C278  H43   S    
O43   Zn9   S    
C422  C463  A    
C35   C176  A    
C378  C380  A    
O4    Zn16  S    
C336  H91   S    
C165  C323  A    
C101  C235  A    
C347  C348  A    
C169  I13   S    
C248  C249  A    
C385  C386  A    
C86   H2    S    
C280  H44   S    
C238  C239  A    
C51   H193  S    
C30   C108  A    
C174  I10   S    
C56   C118  A    
C173  I9    S    
C253  H22   S    
C5    C346  A    
C392  C393  A    
C162  C290  A    
C255  H25   S    
C21   O27   A    
O44   Zn14  S    
C25   O30   A    
C80   H68   S    
C172  C189  A    
C310  H70   S    
C74   H101  S    
C372  C373  A    
C463  H204  S    
C34   H177  S    
C356  C362  A    
O34   Zn5   S    
C40   C75   A    
C183  I3    S    
C90   C457  A    
C92   H164  S    
C386  C387  A    
C447  C450  A    
C327  C328  A    
C395  H141  S    
C331  C332  A    
C53   C121  A    
C389  C422  S    
C199  C263  S    
C267  C269  A    
C321  H80   S    
C313  C314  A    
C426  C451  S    
C14   C136  S    
C81   H35   S    
O1    Zn1   S    
C343  C349  A    
C312  C423  A    
C373  C374  A    
C232  C233  A    
C41   C76   A    
C330  H86   S    
C203  C208  A    
C468  H210  S    
O38   Zn13  S    
C230  C231  A    
C277  H42   S    
C436  C454  A    
O34   Zn15  S    
C319  C320  A    
C196  C433  A    
O17   Zn16  S    
C339  H93   S    
C158  N4    A    
C305  C306  A    
C37   H179  S    
C37   C72   A    
C258  C259  A    
C325  C326  A    
C389  C391  A    
C64   C74   A    
C270  C271  A    
C95   H112  S    
O11   Zn9   S    
C114  C149  A    
C176  C194  A    
C397  C398  A    
C24   C175  A    
C67   H159  S    
C303  C304  A    
C260  H28   S    
C94   H1    S    
C31   C66   A    
C203  C204  A    
C348  H100  S    
C242  H14   S    
O26   Zn2   S    
C442  C468  A    
C179  C357  A    
C45   H188  S    
C297  C298  A    
C403  C404  A    
C231  H4    S    
C23   O29   A    
O33   Zn9   S    
C384  C385  A    
C352  H104  S    
C112  O56   A    
C391  C392  A    
C240  H11   S    
C115  C131  A    
C371  H120  S    
C429  O10   A    
C261  H29   S    
C23   C145  S    
C285  C286  A    
C306  H66   S    
C8    C139  S    
O2    Zn7   S    
C350  C355  A    
C165  O64   S    
C292  C293  A    
C167  I12   S    
C41   H183  S    
C366  H117  S    
C466  H207  S    
C11   C133  S    
C105  C141  A    
C286  C287  A    
C113  C246  A    
C416  C472  A    
C6    C450  A    
C44   H187  S    
C65   C73   A    
O24   Zn4   S    
C102  C138  A    
C47   C82   A    
C332  C333  A    
C265  H32   S    
C180  C197  A    
C168  C346  A    
C121  C125  A    
C374  C375  A    
C166  O65   S    
C363  C369  A    
C363  C417  S    
C264  H31   S    
O45   Zn4   S    
C135  C453  A    
C448  C457  A    
C66   H162  S    
C65   H161  S    
C79   C168  A    
C103  C106  A    
C290  C421  A    
C265  C266  A    
C339  C340  A    
C80   C94   A    
C297  H59   S    
C96   C132  A    
C298  H60   S    
C396  C423  S    
C150  C168  A    
O1    Zn12  S    
C32   C106  A    
C349  H102  S    
C6    H218  S    
C388  H136  S    
C101  C190  A    
C384  H131  S    
C155  C224  A    
C358  C359  A    
C118  C128  A    
C291  H53   S    
C181  C198  A    
C394  H140  S    
C375  H125  S    
C163  N5    A    
C239  C240  A    
C146  C456  A    
C276  C277  A    
C418  O5    A    
C184  C202  A    
C221  H236  S    
C20   C142  S    
C427  C440  S    
C216  C217  A    
C21   C143  S    
C156  O55   S    
C8    O42   A    
C353  H105  S    
C392  H138  S    
C402  H147  S    
C19   O25   A    
C284  H48   S    
C197  C303  S    
C78   H57   S    
C404  H148  S    
C7    C452  A    
C159  N5    A    
C68   C180  A    
C34   C104  A    
C449  C458  A    
C14   O19   A    
C326  C327  A    
C176  I5    S    
C7    H220  S    
C113  C459  A    
C192  C428  A    
C318  C319  A    
C43   H185  S    
C355  H107  S    
C129  C136  A    
C81   C93   A    
C195  C289  S    
O46   Zn15  S    
C22   O39   A    
C407  C408  A    
C211  H227  S    
C178  I7    S    
C213  H228  S    
C311  H71   S    
C225  C226  A    
C413  H155  S    
C334  O67   A    
C393  H139  S    
C199  C432  A    
C188  C250  S    
C333  H89   S    
C258  H26   S    
C18   O35   A    
O13   Zn1   S    
C53   C88   A    
C3    H215  S    
C304  C305  A    
C211  C213  A    
C162  N8    A    
C444  C449  A    
C354  C355  A    
C12   O18   A    
C325  H82   S    
C359  H109  S    
C334  C431  S    
C278  C280  A    
C84   C89   A    
C73   H135  S    
C251  H20   S    
C259  C260  A    
C437  C455  A    
C253  C254  A    
C57   C183  A    
C117  C129  A    
C376  C377  A    
C295  H58   S    
C345  H98   S    
C338  H92   S    
C250  C255  A    
C90   C179  A    
C296  C297  A    
C17   O33   A    
C292  H54   S    
C343  C401  S    
C186  C427  A    
C146  C323  A    
C182  I2    S    
C418  O9    A    
C191  C427  A    
C52   C87   A    
C103  C139  A    
C172  I1    S    
C131  C133  A    
C408  H152  S    
C275  H41   S    
C63   H163  S    
C247  C248  A    
C421  C468  A    
O41   Zn11  S    
C435  C441  A    
O23   Zn14  S    
C445  C458  A    
C293  H55   S    
C324  H81   S    
C98   C134  A    
C69   H160  S    
C46   N6    S    
C320  C321  A    
C335  C425  A    
C205  H222  S    
C373  H122  S    
C58   H200  S    
C328  H85   S    
C33   H176  S    
C212  C390  A    
C218  C219  A    
C469  H211  S    
C294  H56   S    
C6    C379  A    
C27   H169  S    
C289  C291  A    
C364  H115  S    
C405  C406  A    
C210  C211  A    
C462  N1    S    
C334  O4    A    
C317  C318  A    
O67   Zn5   S    
O40   Zn10  S    
O68   Zn8   S    
C266  C267  A    
C376  C420  S    
C204  H221  S    
C163  C301  A    
C162  O61   S    
C153  O52   S    
C56   C92   A    
C338  C339  A    
C4    H216  S    
C409  C425  S    
C171  I15   S    
C2    N2    S    
C341  C342  A    
C398  C399  A    
C60   C115  A    
C158  C246  A    
O7    Zn13  S    
C122  C123  A    
C237  C238  A    
C360  H110  S    
C192  C216  S    
C298  C299  A    
C387  C388  A    
C249  H19   S    
C38   C73   A    
