data_mof_unit_1589.cif
_audit_creation_date              2012-12-10T17:27:50-0500
_audit_creation_method            fapswitch 2.2
_symmetry_space_group_name_H-M    P1
_symmetry_Int_Tables_number       1
_space_group_crystal_system       triclinic
_cell_length_a                    18.331113
_cell_length_b                    18.313137
_cell_length_c                    42.929715
_cell_angle_alpha                 89.999732
_cell_angle_beta                  89.998951
_cell_angle_gamma                 90.014304
_cell_volume                      14411.5127614

loop_
_atom_site_label
_atom_site_type_symbol
_atom_type_description
_atom_site_fract_x
_atom_site_fract_y
_atom_site_fract_z
_atom_type_partial_charge
C1    C     C_R   0.995086 0.565838 0.884927 -0.319185
C2    C     C_R   0.499046 0.933946 0.615025 -0.306792
C3    C     C_R   0.638311 0.858375 0.751387 0.902867
C4    C     C_R   0.140889 0.639203 0.249021 0.843656
C5    C     C_R   0.858386 0.361678 0.751396 0.902648
C6    C     C_R   0.639355 0.859221 0.249141 0.841887
C7    C     C_R   0.361688 0.141625 0.751387 0.902868
C8    C     C_R   0.500055 0.999986 0.531523 0.385408
C9    C     C_R   0.499993 0.999971 0.468367 0.397148
C10   C     C_R   0.000002 0.500016 0.532079 0.385568
C11   C     C_R   0.000001 0.500019 0.468841 0.362016
C12   C     C_R   0.999871 0.500001 0.031523 0.385566
C13   C     C_R   0.934518 0.493600 0.384839 -0.310379
C14   C     C_R   0.999902 0.500000 0.968367 0.397464
C15   C     C_R   0.499992 0.000010 0.032024 0.387428
C16   C     C_R   0.499993 0.999969 0.968796 0.367903
C17   C     C_R   0.999979 0.499999 0.868521 -0.121260
C18   C     C_R   0.999958 0.500000 0.131482 -0.121571
C19   C     C_R   0.499998 0.999988 0.868465 -0.123854
C20   C     C_R   0.500004 0.000021 0.131679 -0.107915
C21   C     C_R   0.499975 0.999993 0.368522 -0.120943
C22   C     C_R   0.500026 0.999998 0.631482 -0.121506
C23   C     C_R   0.999999 0.500007 0.368451 -0.120004
C24   C     C_R   0.059923 0.527818 0.615359 -0.315161
C25   C     C_R   0.000001 0.500001 0.631704 -0.107355
C26   C     C_R   0.136604 0.752459 0.704553 0.088259
C27   C     C_R   0.866392 0.243328 0.295304 0.068526
C28   C     C_R   0.246263 0.135315 0.705127 0.089826
C29   C     C_R   0.757748 0.866981 0.295195 0.090186
C30   C     C_R   0.863394 0.247547 0.704550 0.088250
C31   C     C_R   0.133587 0.756693 0.295296 0.068523
C32   C     C_R   0.753731 0.864680 0.705123 0.089830
C33   C     C_R   0.242246 0.133022 0.295197 0.090185
C34   C     C_R   0.158254 0.258997 0.304651 0.074328
C35   C     C_R   0.504938 0.934158 0.384928 -0.319263
C36   C     C_R   0.840220 0.740443 0.695857 0.067567
C37   C     C_R   0.259970 0.839895 0.305179 0.035480
C38   C     C_R   0.739163 0.161034 0.695392 0.068417
C39   C     C_R   0.841731 0.741002 0.304653 0.074345
C40   C     C_R   0.159778 0.259553 0.695859 0.067566
C41   C     C_R   0.740010 0.160121 0.305184 0.035501
C42   C     C_R   0.260835 0.838972 0.695394 0.068417
C43   C     C_R   0.636588 0.252437 0.204542 0.088317
C44   C     C_R   0.365770 0.743974 0.795667 0.068809
C45   C     C_R   0.745614 0.634922 0.205317 0.088891
C46   C     C_R   0.501036 0.066048 0.615023 -0.306800
C47   C     C_R   0.256282 0.366102 0.795591 0.068710
C48   C     C_R   0.363437 0.747535 0.204553 0.088373
C49   C     C_R   0.634228 0.256024 0.795668 0.068811
C50   C     C_R   0.254394 0.365078 0.205317 0.088878
C51   C     C_R   0.743725 0.633905 0.795596 0.068718
C52   C     C_R   0.659783 0.759974 0.805165 0.033650
C53   C     C_R   0.340667 0.240711 0.196003 0.066947
C54   C     C_R   0.760280 0.339954 0.805220 0.033844
C55   C     C_R   0.239234 0.660989 0.195375 0.068333
C56   C     C_R   0.340214 0.240028 0.805164 0.033647
C57   C     C_R   0.065481 0.506419 0.384838 -0.310382
C58   C     C_R   0.659341 0.759289 0.196002 0.066930
C59   C     C_R   0.239715 0.660047 0.805220 0.033849
C60   C     C_R   0.760787 0.338994 0.195369 0.068316
C61   C     C_R   0.142112 0.796800 0.678094 0.056241
C62   C     C_R   0.859384 0.201011 0.322127 0.163881
C63   C     C_R   0.200610 0.139886 0.679055 0.059112
C64   C     C_R   0.801566 0.860591 0.321640 0.115921
C65   C     C_R   0.857883 0.203213 0.678089 0.056223
C66   C     C_R   0.140583 0.799025 0.322115 0.163859
C67   C     C_R   0.799377 0.860103 0.679049 0.059108
C68   C     C_R   0.940078 0.472188 0.615359 -0.315462
C69   C     C_R   0.198413 0.139409 0.321640 0.115919
C70   C     C_R   0.158412 0.203010 0.326914 0.037073
C71   C     C_R   0.840894 0.797350 0.673973 0.051594
C72   C     C_R   0.204100 0.838272 0.327714 0.031583
C73   C     C_R   0.795118 0.161705 0.673089 0.051872
C74   C     C_R   0.841560 0.796986 0.326918 0.037080
C75   C     C_R   0.159094 0.202640 0.673978 0.051591
C76   C     C_R   0.795867 0.161761 0.327724 0.031655
C77   C     C_R   0.204877 0.838308 0.673093 0.051883
C78   C     C_R   0.642087 0.296754 0.178074 0.056028
C79   C     C_R   0.254950 0.796787 0.723604 -0.014246
C80   C     C_R   0.358473 0.701780 0.822514 0.164196
C81   C     C_R   0.699653 0.639333 0.179339 0.059055
C82   C     C_R   0.298518 0.358905 0.822421 0.164406
C83   C     C_R   0.357953 0.703198 0.178090 0.056152
C84   C     C_R   0.641522 0.298219 0.822515 0.164202
C85   C     C_R   0.300359 0.360667 0.179340 0.059068
C86   C     C_R   0.701492 0.641105 0.822427 0.164406
C87   C     C_R   0.661776 0.704411 0.827838 0.034198
C88   C     C_R   0.341750 0.297842 0.174228 0.051308
C89   C     C_R   0.704772 0.338014 0.827896 0.033991
C90   C     C_R   0.746438 0.201916 0.276866 0.002764
C91   C     C_R   0.295201 0.661674 0.173079 0.051996
C92   C     C_R   0.338226 0.295596 0.827835 0.034197
C93   C     C_R   0.658261 0.702158 0.174227 0.051298
C94   C     C_R   0.295221 0.661989 0.827897 0.033995
C95   C     C_R   0.704838 0.338284 0.173065 0.051947
C96   C     C_R   0.999926 0.499999 0.933995 -0.128318
C97   C     C_R   0.999869 0.499999 0.065895 -0.120576
C98   C     C_R   0.499995 0.999966 0.934153 -0.134719
C99   C     C_R   0.499997 0.000049 0.066291 -0.106662
C100  C     C_R   0.499938 0.999970 0.433997 -0.128563
C101  C     C_R   0.202599 0.254263 0.723881 -0.013206
C102  C     C_R   0.500071 0.999993 0.565895 -0.120792
C103  C     C_R   0.999999 0.500019 0.434167 -0.137346
C104  C     C_R   0.000001 0.500008 0.566337 -0.105883
C105  C     C_3   0.045303 0.684591 0.925053 0.103397
C106  C     C_3   0.123226 0.662588 0.934373 -0.379966
C107  C     C_3   0.177824 0.722447 0.926087 -0.948891
C108  C     C_3   0.934027 0.329435 0.070316 0.091678
C109  C     C_3   0.931410 0.266759 0.046832 -0.290893
C110  C     C_3   0.861013 0.222847 0.049804 -0.992558
C111  C     C_3   0.315023 0.037982 0.924885 0.101842
C112  C     C_R   0.999007 0.433948 0.115024 -0.306788
C113  C     C_R   0.798915 0.746923 0.276647 -0.016556
C114  C     C_3   0.335607 0.115648 0.935315 -0.378671
C115  C     C_3   0.275919 0.170223 0.926838 -0.945739
C116  C     C_3   0.684684 0.025523 0.073219 0.091389
C117  C     C_3   0.739715 0.045204 0.047838 -0.302625
C118  C     C_3   0.814910 0.013443 0.054810 -0.982168
C119  C     C_3   0.954577 0.315400 0.925040 0.103443
C120  C     C_3   0.876625 0.337414 0.934313 -0.380058
C121  C     C_3   0.822058 0.277528 0.926026 -0.948912
C122  C     C_3   0.065567 0.670668 0.070297 0.091651
C123  C     C_3   0.068089 0.733298 0.046789 -0.290528
C124  C     C_R   0.745049 0.203216 0.723603 -0.014247
C125  C     C_3   0.138395 0.777357 0.049758 -0.993067
C126  C     C_3   0.684966 0.961942 0.924877 0.101869
C127  C     C_3   0.664342 0.884251 0.935261 -0.378889
C128  C     C_3   0.724054 0.829692 0.926795 -0.945614
C129  C     C_3   0.315815 0.976233 0.072615 0.091808
C130  C     C_3   0.260449 0.954550 0.047669 -0.303001
C131  C     C_3   0.185783 0.988286 0.053953 -0.981551
C132  C     C_3   0.545155 0.184589 0.425060 0.103513
C133  C     C_3   0.623090 0.162647 0.434388 -0.380164
C134  C     C_3   0.677658 0.222505 0.426067 -0.949303
C135  C     C_R   0.253551 0.798092 0.276863 0.002776
C136  C     C_3   0.434058 0.829519 0.570269 0.091673
C137  C     C_3   0.431410 0.766918 0.546750 -0.290825
C138  C     C_3   0.360913 0.723143 0.549645 -0.993086
C139  C     C_3   0.817932 0.548237 0.424963 0.099968
C140  C     C_3   0.842305 0.623588 0.436857 -0.367455
C141  C     C_3   0.787456 0.682608 0.427858 -0.949555
C142  C     C_3   0.184515 0.525517 0.573138 0.091198
C143  C     C_3   0.239609 0.545820 0.547872 -0.302839
C144  C     C_3   0.314745 0.513748 0.554701 -0.981570
C145  C     C_3   0.454608 0.815456 0.425115 0.102948
C146  C     C_R   0.797399 0.745735 0.723880 -0.013207
C147  C     C_3   0.377002 0.837041 0.435054 -0.378772
C148  C     C_3   0.322154 0.777498 0.426658 -0.949149
C149  C     C_3   0.566080 0.170474 0.570283 0.091667
C150  C     C_3   0.568738 0.233107 0.546779 -0.290870
C151  C     C_3   0.639213 0.276908 0.549704 -0.992952
C152  C     C_3   0.182056 0.451764 0.424956 0.099993
C153  C     C_3   0.157601 0.376384 0.436789 -0.367553
C154  C     C_3   0.212470 0.317370 0.427805 -0.949609
C155  C     C_3   0.815409 0.474253 0.573240 0.091130
C156  C     C_3   0.760364 0.454319 0.547902 -0.302773
C157  C     C_R   0.201079 0.253077 0.276647 -0.016557
C158  C     C_3   0.685153 0.486082 0.554844 -0.981680
C159  C     C_R   0.249256 0.192800 0.273531 -0.053332
C160  C     C_R   0.748679 0.805372 0.726920 -0.016979
C161  C     C_R   0.193176 0.750123 0.273581 -0.053216
C162  C     C_R   0.804705 0.251924 0.726637 -0.017443
C163  C     C_R   0.750741 0.807201 0.273529 -0.053328
C164  C     C_R   0.434825 0.990747 0.884853 -0.317431
C165  C     C_R   0.251318 0.194625 0.726922 -0.016979
C166  C     C_R   0.806812 0.249888 0.273585 -0.053227
C167  C     C_R   0.195294 0.748078 0.726638 -0.017437
C168  C     C_R   0.754916 0.296817 0.223576 -0.014299
C169  C     C_R   0.246250 0.701968 0.776931 0.002789
C170  C     C_R   0.702345 0.754102 0.223973 -0.012116
C171  C     C_R   0.298228 0.246447 0.776902 0.002947
C172  C     C_R   0.245094 0.703173 0.223580 -0.014288
C173  C     C_R   0.753748 0.298031 0.776931 0.002791
C174  C     C_R   0.297659 0.245898 0.223974 -0.012115
C175  C     C_R   0.560002 0.027681 0.115324 -0.315418
C176  C     C_R   0.701772 0.753555 0.776903 0.002948
C177  C     C_R   0.749968 0.693294 0.773726 -0.052222
C178  C     C_R   0.249022 0.305600 0.227009 -0.014234
C179  C     C_R   0.693460 0.249882 0.773742 -0.052150
C180  C     C_R   0.304733 0.751902 0.226629 -0.017108
C181  C     C_R   0.250035 0.306710 0.773724 -0.052224
C182  C     C_R   0.750981 0.694400 0.227009 -0.014224
C183  C     C_R   0.306539 0.750117 0.773742 -0.052148
C184  C     C_R   0.695280 0.248085 0.226624 -0.017130
C185  C     C_R   0.306614 0.801077 0.748577 -0.089497
C186  C     C_R   0.004845 0.434161 0.884929 -0.319203
C187  C     C_R   0.694833 0.197549 0.251887 -0.093458
C188  C     C_R   0.198856 0.306519 0.748657 -0.089202
C189  C     C_R   0.802492 0.694779 0.251869 -0.092377
C190  C     C_R   0.693385 0.198924 0.748577 -0.089498
C191  C     C_R   0.305169 0.802449 0.251888 -0.093438
C192  C     C_R   0.801145 0.693483 0.748658 -0.089202
C193  C     C_R   0.197508 0.305221 0.251868 -0.092371
C194  C     C_R   0.301039 0.193397 0.248672 -0.088794
C195  C     C_R   0.697508 0.805201 0.751922 -0.093581
C196  C     C_R   0.193351 0.698939 0.248516 -0.089165
C197  C     C_R   0.000847 0.566053 0.115023 -0.306839
C198  C     C_R   0.805185 0.302469 0.751892 -0.093646
C199  C     C_R   0.698962 0.806603 0.248670 -0.088797
C200  C     C_R   0.302490 0.194798 0.751922 -0.093583
C201  C     C_R   0.806647 0.301063 0.248516 -0.089179
C202  C     C_R   0.194816 0.697530 0.751892 -0.093646
C203  C     C_R   0.998891 0.566989 0.917617 0.453692
C204  C     C_R   0.997149 0.433356 0.082390 0.428724
C205  C     C_R   0.433295 0.994597 0.917515 0.457319
C206  C     C_R   0.561108 0.026875 0.082632 0.430609
C207  C     C_R   0.000989 0.433009 0.917618 0.453697
C208  C     C_R   0.565170 0.009214 0.884853 -0.317452
C209  C     C_R   0.002610 0.566644 0.082387 0.428758
C210  C     C_R   0.566697 0.005343 0.917515 0.457334
C211  C     C_R   0.438907 0.973229 0.082646 0.429088
C212  C     C_R   0.498817 0.066963 0.417622 0.453224
C213  C     C_R   0.497265 0.933354 0.582391 0.428613
C214  C     C_R   0.933128 0.497769 0.417482 0.457128
C215  C     C_R   0.061042 0.526992 0.582679 0.429979
C216  C     C_R   0.501042 0.932985 0.417615 0.452893
C217  C     C_R   0.502865 0.066634 0.582389 0.428598
C218  C     C_R   0.066869 0.502263 0.417481 0.457151
C219  C     C_R   0.440008 0.972383 0.115323 -0.313590
C220  C     C_R   0.938957 0.473020 0.582677 0.430233
C221  C     C_R   0.000001 0.500000 0.665856 0.830331
C222  C     C_R   1.000000 0.500001 0.334196 0.834480
C223  C     C_R   0.500004 1.000000 0.665771 0.832869
C224  C     C_R   0.499999 0.999999 0.334227 0.831407
C225  C     C_R   0.500001 0.000004 0.165847 0.830157
C226  C     C_R   0.499999 0.999998 0.834201 0.831569
C227  C     C_R   0.999995 0.500000 0.165771 0.833135
C228  C     C_R   0.999998 0.500000 0.834227 0.831567
C229  C     C_R   0.860735 0.640852 0.749097 0.843872
C230  C     C_R   0.494990 0.065818 0.384932 -0.319522
C231  C     C_R   0.138384 0.358451 0.251335 0.898029
C232  C     C_R   0.359130 0.860771 0.749045 0.844037
C233  C     C_R   0.641644 0.138303 0.251413 0.901822
C234  C     C_R   0.139266 0.359148 0.749097 0.843875
C235  C     C_R   0.861617 0.641550 0.251336 0.898036
C236  C     C_R   0.640869 0.139229 0.749045 0.844036
C237  C     C_R   0.358357 0.861696 0.251412 0.901810
C238  C     C_R   0.859109 0.360799 0.249021 0.843681
C239  C     C_R   0.141615 0.638321 0.751397 0.902652
C240  C     C_R   0.360644 0.140777 0.249142 0.841876
H1    H     H_    0.987410 0.616118 0.872158 0.176335
H2    H     H_    0.500072 0.882502 0.627452 0.179347
H3    H     H_    0.292636 0.225873 0.934228 0.273360
H4    H     H_    0.224154 0.155882 0.938822 0.268498
H5    H     H_    0.679303 0.964808 0.074005 0.136261
H6    H     H_    0.705704 0.045731 0.095941 0.141225
H7    H     H_    0.720258 0.023813 0.025067 0.242155
H8    H     H_    0.744116 0.105581 0.046072 0.235662
H9    H     H_    0.836251 0.035704 0.077091 0.268972
H10   H     H_    0.853263 0.028353 0.035826 0.268075
H11   H     H_    0.811933 0.952965 0.056359 0.270358
H12   H     H_    0.968092 0.263817 0.937374 0.169409
H13   H     H_    0.884261 0.485071 0.372143 0.177139
H14   H     H_    0.957543 0.302037 0.899868 0.121923
H15   H     H_    0.874188 0.347312 0.959812 0.246891
H16   H     H_    0.860636 0.388369 0.922030 0.213499
H17   H     H_    0.823758 0.265860 0.900644 0.259882
H18   H     H_    0.766109 0.295556 0.932276 0.273991
H19   H     H_    0.834713 0.226747 0.939107 0.268259
H20   H     H_    0.113600 0.634493 0.066102 0.138330
H21   H     H_    0.068932 0.693890 0.094210 0.134629
H22   H     H_    0.064320 0.710823 0.022781 0.240006
H23   H     H_    0.020727 0.770096 0.050664 0.227669
H24   H     H_    0.105006 0.551822 0.628032 0.168550
H25   H     H_    0.142528 0.802018 0.073336 0.269871
H26   H     H_    0.138436 0.821868 0.032199 0.271712
H27   H     H_    0.186555 0.741885 0.045569 0.269265
H28   H     H_    0.736696 0.977090 0.936711 0.168578
H29   H     H_    0.697345 0.963243 0.899574 0.123436
H30   H     H_    0.656085 0.883269 0.960885 0.246324
H31   H     H_    0.612825 0.866942 0.923787 0.212933
H32   H     H_    0.733328 0.829448 0.901222 0.259323
H33   H     H_    0.707304 0.774024 0.934147 0.273384
H34   H     H_    0.775777 0.843994 0.938820 0.268500
H35   H     H_    0.512757 0.883888 0.372164 0.176213
H36   H     H_    0.322166 0.036868 0.072144 0.136945
H37   H     H_    0.294516 0.958988 0.095734 0.140533
H38   H     H_    0.280226 0.972972 0.024479 0.242809
H39   H     H_    0.255077 0.894123 0.047177 0.235343
H40   H     H_    0.164112 0.968978 0.076673 0.268962
H41   H     H_    0.147176 0.971818 0.035300 0.267907
H42   H     H_    0.189735 0.048814 0.054226 0.270312
H43   H     H_    0.531562 0.236184 0.437370 0.169211
H44   H     H_    0.542269 0.197905 0.399882 0.122014
H45   H     H_    0.625467 0.152889 0.459898 0.246656
H46   H     H_    0.499992 0.117493 0.627449 0.179334
H47   H     H_    0.639127 0.111632 0.422162 0.213207
H48   H     H_    0.676029 0.234022 0.400672 0.260098
H49   H     H_    0.733595 0.204534 0.432367 0.273088
H50   H     H_    0.664943 0.273356 0.439088 0.268823
H51   H     H_    0.386144 0.865841 0.566055 0.138170
H52   H     H_    0.430556 0.806292 0.594177 0.134589
H53   H     H_    0.435393 0.789397 0.522748 0.239789
H54   H     H_    0.478605 0.729928 0.550663 0.227616
H55   H     H_    0.356562 0.698465 0.573212 0.269877
H56   H     H_    0.360784 0.678664 0.532072 0.272091
H57   H     H_    0.115739 0.514935 0.372140 0.177141
H58   H     H_    0.312918 0.758814 0.545421 0.269002
H59   H     H_    0.764629 0.535133 0.435936 0.167473
H60   H     H_    0.807256 0.549970 0.399516 0.124990
H61   H     H_    0.847413 0.622221 0.462629 0.243132
H62   H     H_    0.896205 0.638164 0.426776 0.217769
H63   H     H_    0.781824 0.685522 0.402121 0.263367
H64   H     H_    0.806654 0.736428 0.436508 0.267609
H65   H     H_    0.733347 0.670772 0.438360 0.268557
H66   H     H_    0.179039 0.464793 0.573615 0.136305
H67   H     H_    0.205540 0.545053 0.595967 0.141122
H68   H     H_    0.894999 0.448186 0.628035 0.168426
H69   H     H_    0.220150 0.525097 0.524990 0.242709
H70   H     H_    0.244100 0.606235 0.546418 0.235486
H71   H     H_    0.336092 0.535356 0.577098 0.268865
H72   H     H_    0.353146 0.529121 0.535802 0.268300
H73   H     H_    0.311671 0.453236 0.555944 0.270150
H74   H     H_    0.468718 0.763569 0.437090 0.168995
H75   H     H_    0.456554 0.802794 0.399858 0.121843
H76   H     H_    0.375460 0.845818 0.460640 0.246506
H77   H     H_    0.360597 0.888517 0.423277 0.213605
H78   H     H_    0.322940 0.766925 0.401182 0.259960
H79   H     H_    0.026863 0.753937 0.710640 0.194939
H80   H     H_    0.266433 0.795226 0.433417 0.273138
H81   H     H_    0.335292 0.726169 0.439253 0.268635
H82   H     H_    0.614003 0.134165 0.566068 0.138184
H83   H     H_    0.569557 0.193672 0.594197 0.134569
H84   H     H_    0.564801 0.210658 0.522771 0.239977
H85   H     H_    0.521522 0.270072 0.550689 0.227592
H86   H     H_    0.643515 0.301559 0.573278 0.269838
H87   H     H_    0.639348 0.321409 0.532141 0.272093
H88   H     H_    0.687230 0.241264 0.545486 0.269019
H89   H     H_    0.235333 0.464798 0.435966 0.167511
H90   H     H_    0.059527 0.680124 0.690787 0.185903
H91   H     H_    0.192810 0.450117 0.399513 0.124994
H92   H     H_    0.152371 0.377677 0.462558 0.243142
H93   H     H_    0.103744 0.361854 0.426655 0.217752
H94   H     H_    0.218234 0.314541 0.402071 0.263366
H95   H     H_    0.193203 0.263530 0.436404 0.267571
H96   H     H_    0.266530 0.329147 0.438364 0.268562
H97   H     H_    0.820744 0.534978 0.573932 0.136185
H98   H     H_    0.794424 0.454223 0.595998 0.141248
H99   H     H_    0.779777 0.475537 0.525095 0.242589
H100  H     H_    0.756013 0.393925 0.546230 0.235539
H101  H     H_    0.940693 0.327400 0.293749 0.182500
H102  H     H_    0.663855 0.463985 0.577163 0.268874
H103  H     H_    0.646789 0.470993 0.535891 0.268321
H104  H     H_    0.688088 0.546574 0.556304 0.270165
H105  H     H_    0.283612 0.566256 0.851339 0.206367
H106  H     H_    0.242842 0.639285 0.868534 0.189982
H107  H     H_    0.710281 0.346228 0.125928 0.182753
H108  H     H_    0.670150 0.418553 0.143921 0.187011
H109  H     H_    0.433674 0.283719 0.851414 0.206214
H110  H     H_    0.360369 0.243241 0.868544 0.189236
H111  H     H_    0.647799 0.705542 0.127155 0.186627
H112  H     H_    0.000119 0.382507 0.127452 0.179329
H113  H     H_    0.955841 0.256668 0.267236 0.206151
H114  H     H_    0.576395 0.666516 0.146175 0.185567
H115  H     H_    0.716369 0.433754 0.851333 0.206366
H116  H     H_    0.757147 0.360735 0.868532 0.190021
H117  H     H_    0.289790 0.653703 0.125943 0.182847
H118  H     H_    0.329900 0.581385 0.143947 0.186987
H119  H     H_    0.566325 0.716276 0.851417 0.206207
H120  H     H_    0.639619 0.756774 0.868544 0.189270
H121  H     H_    0.352221 0.294461 0.127157 0.186537
H122  H     H_    0.423624 0.333483 0.146178 0.185553
H123  H     H_    0.287745 0.403278 0.135952 0.189760
H124  H     H_    0.246083 0.025500 0.711561 0.195175
H125  H     H_    0.357379 0.439973 0.156959 0.174503
H126  H     H_    0.644841 0.565435 0.846924 0.195963
H127  H     H_    0.717688 0.601210 0.865903 0.199227
H128  H     H_    0.398444 0.718735 0.134522 0.192235
H129  H     H_    0.436231 0.647842 0.154391 0.174557
H130  H     H_    0.565965 0.354872 0.847045 0.196016
H131  H     H_    0.601779 0.281988 0.866010 0.199437
H132  H     H_    0.712271 0.596722 0.135951 0.189783
H133  H     H_    0.642637 0.560025 0.156958 0.174512
H134  H     H_    0.355179 0.434575 0.846913 0.195966
H135  H     H_    0.318587 0.058628 0.691014 0.186780
H136  H     H_    0.282329 0.398814 0.865895 0.199215
H137  H     H_    0.601633 0.281178 0.134503 0.192053
H138  H     H_    0.563821 0.352082 0.154356 0.174609
H139  H     H_    0.434027 0.645126 0.847045 0.196017
H140  H     H_    0.398215 0.718014 0.866009 0.199440
H141  H     H_    0.783476 0.066397 0.351357 0.207336
H142  H     H_    0.743930 0.140060 0.368548 0.190044
H143  H     H_    0.210292 0.846337 0.625957 0.182631
H144  H     H_    0.170202 0.918646 0.643980 0.186679
H145  H     H_    0.849657 0.792673 0.374064 0.184934
H146  H     H_    0.672413 0.939871 0.294284 0.181506
H147  H     H_    0.922708 0.830581 0.355819 0.191105
H148  H     H_    0.148921 0.206309 0.626895 0.186367
H149  H     H_    0.077452 0.167041 0.645791 0.185407
H150  H     H_    0.216489 0.933644 0.351339 0.207408
H151  H     H_    0.256015 0.859988 0.368542 0.189602
H152  H     H_    0.789700 0.153686 0.625953 0.182618
H153  H     H_    0.829791 0.081373 0.643972 0.186680
H154  H     H_    0.150296 0.207355 0.374059 0.184955
H155  H     H_    0.077270 0.169394 0.355815 0.191089
H156  H     H_    0.851056 0.793671 0.626890 0.186385
H157  H     H_    0.742120 0.956743 0.267473 0.205573
H158  H     H_    0.922528 0.832945 0.645779 0.185410
H159  H     H_    0.786198 0.902278 0.635615 0.189710
H160  H     H_    0.855973 0.939333 0.656420 0.174438
H161  H     H_    0.140970 0.061695 0.344832 0.178058
H162  H     H_    0.212500 0.097284 0.365013 0.179074
H163  H     H_    0.898357 0.218705 0.634513 0.191841
H164  H     H_    0.936175 0.147843 0.654395 0.174678
H165  H     H_    0.065024 0.856531 0.346270 0.187957
H166  H     H_    0.099584 0.783359 0.365439 0.200007
H167  H     H_    0.213775 0.097701 0.635622 0.189698
H168  H     H_    0.973135 0.246063 0.710635 0.194941
H169  H     H_    0.144005 0.060653 0.656434 0.174435
H170  H     H_    0.859005 0.938299 0.344837 0.178064
H171  H     H_    0.787455 0.902720 0.365011 0.179074
H172  H     H_    0.101632 0.781323 0.634519 0.191869
H173  H     H_    0.063816 0.852178 0.654406 0.174673
H174  H     H_    0.934934 0.143523 0.346294 0.187957
H175  H     H_    0.900356 0.216701 0.365454 0.199984
H176  H     H_    0.940474 0.319882 0.690786 0.185897
H177  H     H_    0.059292 0.672615 0.293742 0.182483
H178  H     H_    0.044146 0.743341 0.267225 0.206175
H179  H     H_    0.753919 0.974495 0.711556 0.195169
H180  H     H_    0.385079 0.979940 0.872118 0.177178
H181  H     H_    0.681408 0.941369 0.691014 0.186785
H182  H     H_    0.327593 0.060144 0.294293 0.181509
H183  H     H_    0.257893 0.043254 0.267481 0.205570
H184  H     H_    0.063217 0.309104 0.316136 0.200640
H185  H     H_    0.138693 0.346461 0.332401 0.206737
H186  H     H_    0.856713 0.653665 0.667431 0.208723
H187  H     H_    0.933544 0.688407 0.683443 0.179084
H188  H     H_    0.310763 0.935232 0.316429 0.179739
H189  H     H_    0.348999 0.859123 0.332269 0.192074
H190  H     H_    0.651588 0.143765 0.667530 0.203019
H191  H     H_    0.605149 0.051552 0.127999 0.168391
H192  H     H_    0.688242 0.067068 0.682929 0.179022
H193  H     H_    0.936773 0.690909 0.316142 0.200642
H194  H     H_    0.861295 0.653532 0.332399 0.206740
H195  H     H_    0.143295 0.346325 0.667428 0.208705
H196  H     H_    0.066461 0.311601 0.683445 0.179081
H197  H     H_    0.689234 0.064774 0.316433 0.179715
H198  H     H_    0.650972 0.140878 0.332268 0.192181
H199  H     H_    0.348409 0.856234 0.667528 0.203025
H200  H     H_    0.311765 0.932934 0.682930 0.179019
H201  H     H_    0.526854 0.253874 0.210627 0.195091
H202  H     H_    0.012537 0.383881 0.872161 0.176333
H203  H     H_    0.559560 0.180052 0.190789 0.185929
H204  H     H_    0.439792 0.828361 0.794338 0.183463
H205  H     H_    0.455695 0.757659 0.767888 0.206311
H206  H     H_    0.745666 0.525118 0.211822 0.195629
H207  H     H_    0.817909 0.558319 0.191127 0.186389
H208  H     H_    0.171868 0.440015 0.794288 0.183217
H209  H     H_    0.242364 0.456003 0.767779 0.206482
H210  H     H_    0.473169 0.746113 0.210644 0.195087
H211  H     H_    0.440462 0.819919 0.190795 0.185973
H212  H     H_    0.560209 0.171635 0.794341 0.183467
H213  H     H_    0.999750 0.617492 0.127451 0.179302
H214  H     H_    0.544303 0.242336 0.767890 0.206304
H215  H     H_    0.254340 0.474882 0.211821 0.195633
H216  H     H_    0.182100 0.441680 0.191126 0.186386
H217  H     H_    0.828141 0.559993 0.794294 0.183229
H218  H     H_    0.757644 0.544000 0.767787 0.206474
H219  H     H_    0.564083 0.810060 0.816282 0.179487
H220  H     H_    0.639755 0.849294 0.832017 0.193068
H221  H     H_    0.356660 0.154137 0.167413 0.208400
H222  H     H_    0.433671 0.188164 0.183537 0.179213
H223  H     H_    0.810492 0.435668 0.816375 0.179390
H224  H     H_    0.614918 0.020022 0.872120 0.177184
H225  H     H_    0.849575 0.359825 0.832064 0.192473
H226  H     H_    0.151654 0.643804 0.167507 0.203044
H227  H     H_    0.188275 0.567071 0.182882 0.179069
H228  H     H_    0.435907 0.189931 0.816282 0.179484
H229  H     H_    0.360229 0.150712 0.832020 0.193059
H230  H     H_    0.643351 0.845863 0.167412 0.208454
H231  H     H_    0.566338 0.811835 0.183535 0.179237
H232  H     H_    0.189504 0.564331 0.816375 0.179389
H233  H     H_    0.150419 0.640174 0.832064 0.192469
H234  H     H_    0.848382 0.356205 0.167511 0.203006
H235  H     H_    0.394819 0.948500 0.127973 0.169209
H236  H     H_    0.811718 0.432929 0.182877 0.179081
H237  H     H_    0.031751 0.736188 0.937370 0.169382
H238  H     H_    0.042415 0.697927 0.899877 0.121931
H239  H     H_    0.125592 0.652750 0.959877 0.246871
H240  H     H_    0.139241 0.611602 0.922119 0.213537
H241  H     H_    0.176201 0.734051 0.900699 0.259866
H242  H     H_    0.233753 0.704427 0.932374 0.273991
H243  H     H_    0.165137 0.773262 0.939138 0.268241
H244  H     H_    0.886053 0.365678 0.066104 0.138366
H245  H     H_    0.930615 0.306269 0.094237 0.134529
H246  H     H_    0.487245 0.116093 0.372166 0.176201
H247  H     H_    0.935253 0.289174 0.022816 0.240042
H248  H     H_    0.978695 0.229876 0.050732 0.227663
H249  H     H_    0.856798 0.198245 0.073390 0.269748
H250  H     H_    0.860913 0.178301 0.032261 0.271933
H251  H     H_    0.812929 0.258403 0.045589 0.269265
H252  H     H_    0.263277 0.022785 0.936696 0.168582
H253  H     H_    0.302687 0.036751 0.899578 0.123438
H254  H     H_    0.343774 0.116569 0.960944 0.246338
H255  H     H_    0.387162 0.132988 0.923880 0.212956
H256  H     H_    0.266738 0.170536 0.901259 0.259333
N1    N     N_R   0.960948 0.449593 0.984452 -0.163059
N2    N     N_R   0.539060 0.050359 0.515420 -0.161175
N3    N     N_R   0.060574 0.480774 0.485067 -0.144307
N4    N     N_R   0.939295 0.519201 0.516039 -0.161790
N5    N     N_R   0.538978 0.050365 0.484445 -0.163466
N6    N     N_R   0.461021 0.949609 0.515437 -0.161426
N7    N     N_R   0.939429 0.519264 0.485069 -0.144341
N8    N     N_R   0.060709 0.480834 0.516037 -0.162007
N9    N     N_3   0.068758 0.715263 0.709580 -0.442013
N10   N     N_3   0.938195 0.271377 0.289500 -0.455445
N11   N     N_3   0.284232 0.067828 0.710057 -0.441531
N12   N     N_R   0.038876 0.550394 0.015432 -0.160925
N13   N     N_3   0.728290 0.938426 0.289742 -0.457342
N14   N     N_3   0.931241 0.284739 0.709577 -0.442018
N15   N     N_3   0.061787 0.728638 0.289491 -0.455440
N16   N     N_3   0.715767 0.932169 0.710055 -0.441532
N17   N     N_3   0.271717 0.061581 0.289749 -0.457360
N18   N     N_3   0.117465 0.323518 0.312008 -0.432614
N19   N     N_3   0.879171 0.675266 0.687846 -0.416299
N20   N     N_3   0.324535 0.880806 0.312314 -0.439310
N21   N     N_3   0.674377 0.121154 0.687678 -0.417534
N22   N     N_3   0.882529 0.676486 0.312009 -0.432631
N23   N     N_R   0.560418 0.980203 0.985009 -0.146543
N24   N     N_3   0.120837 0.324734 0.687845 -0.416292
N25   N     N_3   0.675451 0.119197 0.312316 -0.439327
N26   N     N_3   0.325625 0.878846 0.687678 -0.417528
N27   N     N_3   0.568764 0.215215 0.209576 -0.441779
N28   N     N_3   0.437562 0.772329 0.790085 -0.461110
N29   N     N_3   0.783725 0.567510 0.210226 -0.441164
N30   N     N_3   0.227833 0.437897 0.790000 -0.460960
N31   N     N_3   0.431255 0.784767 0.209586 -0.441785
N32   N     N_3   0.562436 0.227666 0.790088 -0.461113
N33   N     N_3   0.216281 0.432490 0.210225 -0.441172
N34   N     N_R   0.439439 0.019692 0.015978 -0.162679
N35   N     N_3   0.772176 0.562110 0.790006 -0.460971
N36   N     N_3   0.618320 0.824307 0.812128 -0.439883
N37   N     N_3   0.379198 0.175357 0.187885 -0.415746
N38   N     N_3   0.824621 0.381369 0.812191 -0.439676
N39   N     N_3   0.174427 0.621151 0.187650 -0.417647
N40   N     N_3   0.381667 0.175691 0.812129 -0.439871
N41   N     N_3   0.620811 0.824643 0.187884 -0.415739
N42   N     N_3   0.175374 0.618631 0.812192 -0.439673
N43   N     N_3   0.825584 0.378855 0.187650 -0.417663
N44   N     N_3   0.289103 0.621699 0.856482 -0.483279
N45   N     N_R   0.038840 0.550407 0.984458 -0.163104
N46   N     N_3   0.712922 0.380973 0.145208 -0.480347
N47   N     N_3   0.378263 0.289422 0.856473 -0.482862
N48   N     N_3   0.614154 0.709238 0.146743 -0.474863
N49   N     N_3   0.710884 0.378312 0.856479 -0.483298
N50   N     N_3   0.287131 0.618969 0.145226 -0.480313
N51   N     N_3   0.621737 0.710585 0.856476 -0.482870
N52   N     N_3   0.385863 0.290763 0.146745 -0.474961
N53   N     N_3   0.303637 0.421088 0.158059 -0.481932
N54   N     N_3   0.699099 0.582047 0.844374 -0.455618
N55   N     N_3   0.417324 0.701490 0.156279 -0.479809
N56   N     N_R   0.960882 0.449605 0.015426 -0.160853
N57   N     N_3   0.582572 0.300575 0.844490 -0.455349
N58   N     N_3   0.696378 0.578912 0.158058 -0.481938
N59   N     N_3   0.300918 0.417969 0.844365 -0.455617
N60   N     N_3   0.582734 0.298438 0.156255 -0.479860
N61   N     N_3   0.417422 0.699425 0.844489 -0.455351
N62   N     N_3   0.789778 0.121798 0.356390 -0.486220
N63   N     N_3   0.212960 0.881045 0.645248 -0.480470
N64   N     N_3   0.884171 0.788612 0.354770 -0.471879
N65   N     N_3   0.115149 0.209814 0.646451 -0.475247
N66   N     N_3   0.210176 0.878247 0.356377 -0.486014
N67   N     N_R   0.439568 0.019751 0.985005 -0.146680
N68   N     N_3   0.787034 0.118974 0.645243 -0.480478
N69   N     N_3   0.115787 0.211382 0.354763 -0.471865
N70   N     N_3   0.884833 0.790171 0.646443 -0.475234
N71   N     N_3   0.802288 0.920333 0.657660 -0.481930
N72   N     N_3   0.195014 0.079449 0.343128 -0.461607
N73   N     N_3   0.917246 0.201486 0.656273 -0.480084
N74   N     N_3   0.081089 0.802045 0.343822 -0.438293
N75   N     N_3   0.197691 0.079651 0.657669 -0.481932
N76   N     N_3   0.804959 0.920552 0.343128 -0.461605
N77   N     N_3   0.082746 0.798535 0.656280 -0.480081
N78   N     N_R   0.560547 0.980302 0.015983 -0.161221
N79   N     N_3   0.918865 0.198007 0.343839 -0.438274
N80   N     N_R   0.461044 0.949589 0.484464 -0.163963
O1    O     O_3   0.000000 0.500000 0.750000 -0.482703
O2    O     O_R   0.060770 0.500000 0.319330 -0.649902
O3    O     O_R   0.500000 0.939230 0.680670 -0.643347
O4    O     O_R   0.500000 0.060770 0.319330 -0.649504
O5    O     O_R   0.560770 0.000000 0.180670 -0.642613
O6    O     O_R   0.439230 0.000000 0.819330 -0.649715
O7    O     O_R   0.000000 0.560770 0.180670 -0.643257
O8    O     O_R   0.000000 0.439230 0.819330 -0.649563
O9    O     O_R   0.439230 0.000000 0.180670 -0.642678
O10   O     O_R   0.560770 0.000000 0.819330 -0.649711
O11   O     O_R   0.000000 0.439230 0.180670 -0.643266
O12   O     O_3   0.000000 0.500000 0.250000 -0.482903
O13   O     O_R   1.000000 0.560770 0.819330 -0.649566
O14   O     O_R   0.853860 0.585440 0.731810 -0.635546
O15   O     O_R   0.146140 0.414560 0.268190 -0.612841
O16   O     O_R   0.414560 0.853860 0.731810 -0.636333
O17   O     O_R   0.585440 0.146140 0.268190 -0.611038
O18   O     O_R   0.146140 0.414560 0.731810 -0.635548
O19   O     O_R   0.853860 0.585440 0.268190 -0.612844
O20   O     O_R   0.585440 0.146140 0.731810 -0.636340
O21   O     O_R   0.414560 0.853860 0.268190 -0.611051
O22   O     O_R   0.853860 0.414560 0.268190 -0.640717
O23   O     O_3   0.500000 0.000000 0.750000 -0.482738
O24   O     O_R   0.146140 0.585440 0.731810 -0.648948
O25   O     O_R   0.414560 0.146140 0.268190 -0.641202
O26   O     O_R   0.585440 0.853860 0.731810 -0.647168
O27   O     O_R   0.146140 0.585440 0.268190 -0.640715
O28   O     O_R   0.853860 0.414560 0.731810 -0.648954
O29   O     O_R   0.585440 0.853860 0.268190 -0.641191
O30   O     O_R   0.414560 0.146140 0.731810 -0.647166
O31   O     O_R   0.353860 0.085440 0.231810 -0.635591
O32   O     O_R   0.646140 0.914560 0.768190 -0.611426
O33   O     O_R   0.914560 0.353860 0.231810 -0.636893
O34   O     O_3   0.500000 0.000000 0.250000 -0.482594
O35   O     O_R   0.085440 0.646140 0.768190 -0.611336
O36   O     O_R   0.646140 0.914560 0.231810 -0.635604
O37   O     O_R   0.353860 0.085440 0.768190 -0.611425
O38   O     O_R   0.085440 0.646140 0.231810 -0.636883
O39   O     O_R   0.914560 0.353860 0.768190 -0.611339
O40   O     O_R   0.353860 0.914560 0.768190 -0.641379
O41   O     O_R   0.646140 0.085440 0.231810 -0.649113
O42   O     O_R   0.914560 0.646140 0.768190 -0.641278
O43   O     O_R   0.085440 0.353860 0.231810 -0.646679
O44   O     O_R   0.646140 0.085440 0.768190 -0.641373
O45   O     O_R   0.060770 0.500000 0.680670 -0.642829
O46   O     O_R   0.353860 0.914560 0.231810 -0.649049
O47   O     O_R   0.085440 0.353860 0.768190 -0.641275
O48   O     O_R   0.914560 0.646140 0.231810 -0.646677
O49   O     O_3   0.992718 0.631935 0.934276 -0.631873
O50   O     O_3   0.000358 0.367723 0.066417 -0.627601
O51   O     O_3   0.368149 0.985447 0.933678 -0.630390
O52   O     O_3   0.617506 0.059620 0.066220 -0.631918
O53   O     O_3   0.007137 0.368064 0.934280 -0.631878
O54   O     O_3   0.999296 0.632270 0.066412 -0.627633
O55   O     O_3   0.631843 0.014471 0.933679 -0.630284
O56   O     O_R   0.939230 0.500000 0.319330 -0.649908
O57   O     O_3   0.382471 0.940434 0.066303 -0.631803
O58   O     O_3   0.492606 0.131899 0.434285 -0.632565
O59   O     O_3   0.500456 0.867718 0.566422 -0.627757
O60   O     O_3   0.867438 0.492062 0.433512 -0.630143
O61   O     O_3   0.117386 0.559879 0.566291 -0.632050
O62   O     O_3   0.507352 0.868030 0.434256 -0.632399
O63   O     O_3   0.499694 0.132267 0.566416 -0.627754
O64   O     O_3   0.132562 0.507946 0.433510 -0.630177
O65   O     O_3   0.882611 0.440157 0.566278 -0.632058
O66   O     O_R   0.500000 0.060770 0.680670 -0.643346
O67   O     O_R   0.500000 0.939230 0.319330 -0.649510
O68   O     O_R   0.939230 0.500000 0.680670 -0.642816
Zn1   Zn    Zn3+2 0.000000 0.586740 0.775960 0.963527
Zn2   Zn    Zn3+2 0.500000 0.913260 0.724040 0.959641
Zn3   Zn    Zn3+2 0.913260 0.500000 0.275960 0.963772
Zn4   Zn    Zn3+2 0.086740 0.500000 0.724040 0.958001
Zn5   Zn    Zn3+2 0.500000 0.913260 0.275960 0.963712
Zn6   Zn    Zn3+2 0.500000 0.086740 0.724040 0.959639
Zn7   Zn    Zn3+2 0.086740 0.500000 0.275960 0.963768
Zn8   Zn    Zn3+2 0.913260 0.500000 0.724040 0.957988
Zn9   Zn    Zn3+2 0.000000 0.413260 0.224040 0.959285
Zn10  Zn    Zn3+2 0.413260 1.000000 0.775960 0.963198
Zn11  Zn    Zn3+2 0.586740 1.000000 0.224040 0.958005
Zn12  Zn    Zn3+2 0.000000 0.413260 0.775960 0.963529
Zn13  Zn    Zn3+2 0.000000 0.586740 0.224040 0.959302
Zn14  Zn    Zn3+2 0.586740 1.000000 0.775960 0.963196
Zn15  Zn    Zn3+2 0.413260 1.000000 0.224040 0.958070
Zn16  Zn    Zn3+2 0.500000 0.086740 0.275960 0.963702

loop_
_geom_bond_atom_site_label_1
_geom_bond_atom_site_label_2
_ccdc_geom_bond_type
C191  C237  S    
C159  C194  A    
C204  O50   S    
C5    O39   A    
C126  C127  S    
C203  O49   S    
C151  H87   S    
C149  O63   S    
C135  C161  A    
C29   C163  A    
O15   Zn7   S    
C106  H239  S    
C47   N30   S    
C16   N67   A    
N12   N45   A    
N1    N56   A    
C31   C161  A    
C114  C115  S    
C144  H71   S    
H199  N26   S    
H134  N59   S    
C147  H77   S    
C157  C193  A    
C105  O49   S    
C68   C220  A    
C19   C226  S    
C234  O47   A    
O38   Zn13  S    
H143  N63   S    
O26   Zn2   S    
C17   C228  S    
C20   C175  A    
C235  O19   A    
C106  C107  S    
C173  C179  A    
C69   N72   S    
C143  C144  S    
C22   C46   A    
O16   Zn2   S    
C108  C109  S    
C4    C196  S    
C39   C74   A    
H184  N18   S    
C102  C217  A    
C158  H103  S    
H170  N76   S    
O42   Zn1   S    
C66   C72   A    
C127  H30   S    
C2    C22   A    
C134  H48   S    
C9    N5    A    
C37   C135  A    
H186  N19   S    
C149  H82   S    
H188  N20   S    
C101  C188  A    
C35   C216  A    
H214  N32   S    
C86   N54   S    
C36   C71   A    
C33   C69   A    
C121  H18   S    
H118  N50   S    
C125  H25   S    
C29   C64   A    
C46   C217  A    
C35   H35   S    
C81   N58   S    
C211  O57   S    
C109  H247  S    
C105  H237  S    
C107  H241  S    
C50   N33   S    
C45   C182  A    
O44   Zn14  S    
H171  N76   S    
C214  O60   S    
C192  C229  S    
C178  C193  A    
C175  H191  S    
H160  N71   S    
H124  N11   S    
C46   H46   S    
H147  N64   S    
C215  O61   S    
C140  C141  S    
C118  H10   S    
C33   N17   S    
O1    Zn12  S    
H144  N63   S    
C73   N68   S    
C136  H51   S    
C3    C195  S    
C110  H250  S    
C161  C196  A    
H232  N42   S    
H193  N22   S    
C55   N39   S    
O67   Zn5   S    
H195  N24   S    
C150  H85   S    
C41   N25   S    
C23   C222  S    
C17   C186  A    
C240  O25   A    
H172  N77   S    
C18   C197  A    
C30   N14   S    
H174  N79   S    
C45   N29   S    
C97   C204  A    
H149  N65   S    
C12   C97   S    
C187  C233  S    
H153  N68   S    
O27   Zn7   S    
H141  N62   S    
H228  N40   S    
H230  N41   S    
O9    Zn15  S    
C174  C194  A    
C56   C171  A    
C217  O63   S    
C75   N65   S    
C172  C196  A    
O68   Zn8   S    
C112  C204  A    
H206  N29   S    
O66   Zn6   S    
C143  H70   S    
C55   C172  A    
H177  N15   S    
C140  H62   S    
C105  C106  S    
C141  H63   S    
C218  O64   S    
C100  C216  A    
C223  O3    A    
C50   C178  A    
C222  O2    A    
C171  C181  A    
C45   C81   A    
C48   N31   S    
C221  O45   A    
O36   Zn11  S    
C139  C140  S    
H123  N53   S    
C74   N64   S    
C21   C35   A    
C83   C91   A    
C162  C198  A    
H226  N39   S    
H131  N57   S    
H157  N13   S    
H181  N16   S    
C156  C158  S    
C130  C131  S    
C139  H60   S    
C125  H27   S    
C41   C76   A    
H168  N14   S    
C16   C98   S    
O34   Zn16  S    
C92   N47   S    
C21   C230  A    
C78   N60   S    
H196  N24   S    
C24   C215  A    
C80   N61   S    
H236  N43   S    
C154  H96   S    
O23   Zn10  S    
C69   C70   A    
C155  O65   S    
C128  H33   S    
C18   C227  S    
C60   C95   A    
C225  O5    A    
C132  H43   S    
C7    O37   A    
C38   N21   S    
C155  C156  S    
O8    Zn12  S    
H107  N46   S    
H183  N17   S    
C79   C167  A    
C59   C169  A    
C151  H88   S    
C155  H98   S    
H216  N33   S    
C49   C179  A    
C130  H38   S    
O34   Zn11  S    
H200  N26   S    
C147  C148  S    
C134  H49   S    
C8    N2    A    
C47   C181  A    
C153  H92   S    
C85   N53   S    
C32   N16   S    
C220  O65   S    
C60   N43   S    
C91   N50   S    
C99   C211  A    
C197  H213  S    
H126  N54   S    
C62   N79   S    
C97   C209  A    
C210  O55   S    
H204  N28   S    
C228  O8    A    
C49   C84   A    
C231  O15   A    
C57   H57   S    
C6    C199  S    
H198  N25   S    
C10   N8    A    
C57   C218  A    
H111  N48   S    
C81   C93   A    
C13   C23   A    
C167  C202  A    
C130  H39   S    
H140  N61   S    
C169  C202  A    
C233  O41   A    
C209  O54   S    
O2    Zn7   S    
C225  O9    A    
C39   C113  A    
C238  O33   A    
C4    O38   A    
C228  O13   A    
H231  N41   S    
H162  N72   S    
C25   C221  S    
C156  H100  S    
H138  N60   S    
C12   N12   A    
C51   N35   S    
C11   N7    A    
H132  N58   S    
H101  N10   S    
H127  N54   S    
C127  H31   S    
C170  C182  A    
O45   Zn4   S    
H167  N75   S    
H209  N30   S    
C128  H32   S    
C126  H28   S    
C154  H94   S    
O13   Zn1   S    
C170  C199  A    
C236  O20   A    
O12   Zn3   S    
H114  N48   S    
C26   C167  A    
O6    Zn10  S    
C226  O6    A    
O1    Zn4   S    
C49   N32   S    
O3    Zn2   S    
H108  N46   S    
H194  N22   S    
C165  C200  A    
H234  N43   S    
H133  N58   S    
H222  N37   S    
C114  H255  S    
H146  N13   S    
C136  O59   S    
C171  C200  A    
C27   C62   A    
H122  N52   S    
C113  C163  A    
C221  O68   A    
C52   N36   S    
O37   Zn10  S    
H155  N69   S    
C145  H74   S    
H207  N29   S    
C77   N63   S    
C237  O46   A    
C53   N37   S    
C2    H2    S    
C44   C183  A    
C111  H253  S    
O47   Zn12  S    
H217  N35   S    
C32   C67   A    
C207  O53   S    
C58   N41   S    
C116  H6    S    
C213  O59   S    
C9    C100  S    
H223  N38   S    
C19   C208  A    
C20   C219  A    
H197  N25   S    
C119  H14   S    
C148  H81   S    
C131  H41   S    
C120  C121  S    
H201  N27   S    
C129  C130  S    
O12   Zn7   S    
C23   C57   A    
C7    O30   A    
C52   C176  A    
C231  O43   A    
C227  O11   A    
C142  C143  S    
C83   N55   S    
C68   H68   S    
C106  H240  S    
C136  C137  S    
C129  H36   S    
C180  C191  A    
O41   Zn11  S    
C144  H72   S    
C31   N15   S    
H219  N36   S    
C186  H202  S    
C211  C219  A    
C1    C17   A    
N4    N7    A    
C194  C240  S    
C36   N19   S    
H187  N19   S    
H121  N52   S    
C117  C118  S    
H185  N18   S    
C142  O61   S    
C63   C75   A    
H173  N77   S    
C108  H245  S    
C176  C195  A    
O18   Zn4   S    
H179  N16   S    
C189  C235  S    
H229  N40   S    
C30   C65   A    
O29   Zn5   S    
C103  C218  A    
C212  O58   S    
C115  H4    S    
C34   C157  A    
H218  N35   S    
C152  C153  S    
C42   C77   A    
N3    N8    A    
C150  C151  S    
C216  O62   S    
C51   C177  A    
C222  O56   A    
C90   C166  A    
H151  N66   S    
C121  H17   S    
H129  N55   S    
O25   Zn16  S    
C103  C214  A    
C236  O44   A    
C26   N9    S    
C31   C66   A    
C14   N1    A    
C151  H86   S    
C48   C180  A    
C122  O54   S    
C124  C190  A    
C111  H252  S    
C119  O53   S    
C201  C238  S    
H145  N64   S    
C164  H180  S    
C43   C78   A    
C34   N18   S    
C128  H34   S    
C3    O26   A    
C89   N49   S    
C137  H54   S    
H139  N61   S    
C58   C93   A    
C18   C112  A    
C118  H11   S    
C148  H78   S    
C147  H76   S    
C123  C125  S    
C90   C187  A    
C123  H22   S    
H225  N38   S    
C82   C92   A    
C110  H251  S    
H165  N74   S    
C7    C200  S    
C185  C232  S    
C55   C91   A    
H169  N75   S    
C50   C85   A    
C208  H224  S    
H164  N73   S    
C93   N48   S    
C59   C94   A    
C95   N46   S    
C34   C70   A    
C4    O27   A    
O12   Zn9   S    
C172  C180  A    
H120  N51   S    
C28   N11   S    
C157  C159  A    
C177  C192  A    
H163  N73   S    
C40   N24   S    
C62   C76   A    
C25   C68   A    
H208  N30   S    
C143  H69   S    
C51   C86   A    
C14   C96   S    
C145  C147  S    
C181  C188  A    
C226  O10   A    
N34   N67   A    
C124  C162  A    
C232  O16   A    
C152  H89   S    
N2    N5    A    
C44   C80   A    
O24   Zn4   S    
H189  N20   S    
C136  H52   S    
C229  O42   A    
H154  N69   S    
C86   C87   A    
C138  H55   S    
C96   C207  A    
O34   Zn5   S    
C206  O52   S    
H159  N71   S    
C166  C201  A    
C6    O36   A    
C13   C214  A    
C223  O66   A    
N23   N78   A    
C139  H59   S    
C56   N40   S    
C11   N3    A    
C224  O4    A    
C78   C95   A    
O17   Zn16  S    
C44   N28   S    
C142  H66   S    
C239  O24   A    
C61   N77   S    
O33   Zn9   S    
C5    C198  S    
C28   C165  A    
C121  H19   S    
C160  C195  A    
C122  H20   S    
C238  O22   A    
O12   Zn13  S    
C133  H45   S    
C219  H235  S    
C133  C134  S    
O30   Zn6   S    
C109  H248  S    
O40   Zn10  S    
C232  O40   A    
C190  C236  S    
C115  H256  S    
C193  C231  S    
C80   C94   A    
C127  C128  S    
O28   Zn8   S    
C107  H242  S    
O21   Zn5   S    
C155  H97   S    
H90   N9    S    
C188  C234  S    
C137  C138  S    
C152  O64   S    
H128  N55   S    
O10   Zn14  S    
C134  H50   S    
C104  C215  A    
C118  H9    S    
O14   Zn8   S    
C148  H80   S    
C87   N51   S    
C119  C120  S    
C184  C187  A    
C122  H21   S    
C29   N13   S    
O5    Zn11  S    
C113  C189  A    
C235  O48   A    
C70   N69   S    
C142  H67   S    
C40   C75   A    
C72   N66   S    
C164  C205  A    
O56   Zn3   S    
C239  O35   A    
C54   N38   S    
C149  C150  S    
C150  H84   S    
H233  N42   S    
C135  C191  A    
C141  H65   S    
C137  H53   S    
H212  N32   S    
C111  C114  S    
C67   C71   A    
C66   N74   S    
C145  O62   S    
C120  H15   S    
C5    O28   A    
C27   C166  A    
H192  N21   S    
C146  C160  A    
C2    C213  A    
C37   C72   A    
C227  O7    A    
C64   C74   A    
C82   N59   S    
C111  O51   S    
C108  H244  S    
C175  C206  A    
H113  N10   S    
C3    O32   A    
C33   C159  A    
C140  H61   S    
H166  N74   S    
C141  H64   S    
C152  H91   S    
C43   N27   S    
O23   Zn14  S    
C125  H26   S    
C9    N80   A    
C126  H29   S    
C154  H95   S    
H148  N65   S    
C240  O31   A    
H211  N31   S    
O39   Zn12  S    
C117  H8    S    
C116  C117  S    
C98   C210  A    
C71   N70   S    
C60   C168  A    
H125  N53   S    
C186  C207  A    
C54   C173  A    
C58   C170  A    
C144  H73   S    
C183  C185  A    
C230  H246  S    
C47   C82   A    
C158  H102  S    
O34   Zn15  S    
C108  O50   S    
C132  H44   S    
C43   C184  A    
H137  N60   S    
C65   C73   A    
C168  C201  A    
O35   Zn1   S    
C94   N44   S    
C84   N57   S    
C21   C224  S    
H176  N14   S    
C169  C183  A    
C102  C213  A    
C88   N52   S    
O1    Zn8   S    
N6    N80   A    
C104  C220  A    
C123  H23   S    
C132  C133  S    
C133  H47   S    
C39   N22   S    
H130  N57   S    
C116  O52   S    
C98   C205  A    
C129  H37   S    
C182  C189  A    
O43   Zn9   S    
O11   Zn9   S    
O19   Zn3   S    
O4    Zn16  S    
C41   C90   A    
C40   C101  A    
C132  O58   S    
O7    Zn13  S    
C174  C178  A    
O23   Zn2   S    
C146  C192  A    
C67   N71   S    
C48   C83   A    
C153  H93   S    
H117  N50   S    
C53   C174  A    
C63   N75   S    
C117  H7    S    
C110  H249  S    
H156  N70   S    
C229  O14   A    
C99   C206  A    
H106  N44   S    
H142  N62   S    
H182  N17   S    
O31   Zn15  S    
C24   C25   A    
C54   C89   A    
C138  H56   S    
C61   C77   A    
C202  C239  S    
H109  N47   S    
C168  C184  A    
C126  O55   S    
C158  H104  S    
C100  C212  A    
C149  H83   S    
C20   C225  S    
C129  O57   S    
C12   N56   A    
C101  C165  A    
C120  H16   S    
H136  N59   S    
H116  N49   S    
H135  N11   S    
C212  C230  A    
H152  N68   S    
H119  N51   S    
C37   N20   S    
H203  N27   S    
C6    O29   A    
C13   H13   S    
C24   H24   S    
C76   N62   S    
C131  H40   S    
H205  N28   S    
C156  H99   S    
C26   C61   A    
C112  H112  S    
C1    H1    S    
C115  H3    S    
C36   C146  A    
C176  C177  A    
H79   N9    S    
C65   N73   S    
C138  H58   S    
C84   C89   A    
O23   Zn6   S    
H221  N37   S    
O46   Zn15  S    
C234  O18   A    
H175  N79   S    
C233  O17   A    
C85   C88   A    
C96   C203  A    
H105  N44   S    
C79   C185  A    
H215  N33   S    
C173  C198  A    
C205  O51   S    
C16   N23   A    
C27   N10   S    
C52   C87   A    
C15   C99   S    
H178  N15   S    
C107  H243  S    
O48   Zn13  S    
C11   C103  S    
H110  N47   S    
C42   N26   S    
O32   Zn14  S    
C22   C223  S    
C237  O21   A    
C139  O60   S    
C114  H254  S    
C10   C104  S    
C122  C123  S    
C8    N6    A    
C119  H12   S    
H150  N66   S    
H190  N21   S    
H161  N72   S    
C64   N76   S    
C179  C190  A    
C145  H75   S    
C224  O67   A    
H158  N70   S    
C15   N78   A    
C53   C88   A    
H227  N39   S    
C19   C164  A    
C38   C124  A    
C197  C209  A    
C163  C199  A    
O22   Zn3   S    
C42   C79   A    
C10   N4    A    
C116  H5    S    
H220  N36   S    
C208  C210  A    
C15   N34   A    
C109  C110  S    
C30   C162  A    
C28   C63   A    
C59   N42   S    
H210  N31   S    
C14   N45   A    
C153  C154  S    
H115  N49   S    
C56   C92   A    
C8    C102  S    
O20   Zn6   S    
C131  H42   S    
O1    Zn1   S    
C105  H238  S    
C32   C160  A    
C38   C73   A    
C1    C203  A    
