data_mof_unit_2525.cif
_audit_creation_date              2012-12-10T18:23:55-0500
_audit_creation_method            fapswitch 2.2
_symmetry_space_group_name_H-M    P1
_symmetry_Int_Tables_number       1
_space_group_crystal_system       triclinic
_cell_length_a                    22.435422
_cell_length_b                    22.46353
_cell_length_c                    14.639406
_cell_angle_alpha                 90.258703
_cell_angle_beta                  89.429676
_cell_angle_gamma                 90.021599
_cell_volume                      7377.50878346

loop_
_atom_site_label
_atom_site_type_symbol
_atom_type_description
_atom_site_fract_x
_atom_site_fract_y
_atom_site_fract_z
_atom_type_partial_charge
C1    C     C_R   0.419549 0.919998 0.500120 0.817518
C2    C     C_R   0.579922 0.080483 0.499971 0.811134
C3    C     C_R   0.580119 0.919678 0.499488 0.816285
C4    C     C_R   0.419939 0.080319 0.500458 0.812284
C5    C     C_R   0.919641 0.419884 0.500202 0.816674
C6    C     C_R   0.080070 0.580314 0.499774 0.813866
C7    C     C_R   0.080549 0.420076 0.499626 0.818316
C8    C     C_R   0.920103 0.580526 0.500482 0.812819
C9    C     C_1   0.340401 0.165179 0.504786 0.090922
C10   C     C_1   0.662471 0.837321 0.497130 0.156281
C11   C     C_1   0.660006 0.164948 0.500876 0.103750
C12   C     C_1   0.334968 0.839874 0.499082 0.153449
C13   C     C_1   0.839175 0.664207 0.505139 0.091580
C14   C     C_1   0.165613 0.340413 0.499932 0.152882
C15   C     C_1   0.159771 0.665033 0.495600 0.091239
C16   C     C_1   0.835693 0.339026 0.501654 0.156848
C17   C     C_1   0.500212 0.000810 0.194332 0.322160
C18   C     C_1   0.499755 0.999912 0.805586 0.326285
C19   C     C_1   0.000441 0.499936 0.194420 0.325377
C20   C     C_1   0.999609 0.500732 0.805696 0.324540
C21   C     C_3   0.513963 0.055224 0.968449 0.323042
C22   C     C_3   0.485925 0.946419 0.030859 0.322389
C23   C     C_3   0.459679 0.040685 0.030414 0.313729
C24   C     C_3   0.540196 0.961034 0.969038 0.311242
C25   C     C_3   0.037792 0.542934 0.969871 0.313498
C26   C     C_3   0.962382 0.458655 0.030690 0.311667
C27   C     C_3   0.982966 0.554239 0.032442 0.323300
C28   C     C_3   0.017295 0.447287 0.968378 0.320067
C29   C     C_3   0.701049 0.730226 0.542587 0.359312
C30   C     C_3   0.292151 0.262138 0.434947 0.294801
C31   C     C_3   0.282986 0.746598 0.422605 0.356839
C32   C     C_3   0.697628 0.275048 0.542524 0.280840
C33   C     C_3   0.217100 0.247447 0.576361 0.357249
C34   C     C_3   0.801060 0.772812 0.465519 0.297295
C35   C     C_3   0.795652 0.231647 0.459150 0.354397
C36   C     C_3   0.208715 0.762197 0.564978 0.296202
C37   C     C_3   0.228681 0.200751 0.500601 0.241000
C38   C     C_3   0.768167 0.800120 0.549068 0.290641
C39   C     C_3   0.766565 0.204949 0.545561 0.240654
C40   C     C_3   0.220858 0.808074 0.488496 0.290132
C41   C     C_3   0.733150 0.702338 0.459014 0.241280
C42   C     C_3   0.279833 0.308428 0.511439 0.290372
C43   C     C_3   0.271624 0.700268 0.498354 0.240981
C44   C     C_3   0.727631 0.301578 0.455799 0.263639
C45   C     C_1   0.376562 0.126153 0.502004 -0.163212
C46   C     C_1   0.624729 0.874908 0.497975 -0.150062
C47   C     C_1   0.623435 0.126251 0.500304 -0.175981
C48   C     C_1   0.373733 0.876424 0.500150 -0.149993
C49   C     C_1   0.876260 0.626005 0.502181 -0.168379
C50   C     C_1   0.126644 0.376756 0.499060 -0.150495
C51   C     C_1   0.123522 0.626091 0.498601 -0.162706
C52   C     C_1   0.874175 0.375907 0.500919 -0.153553
C53   C     C_3   0.284566 0.259811 0.584969 0.284743
C54   C     C_3   0.741617 0.764106 0.415329 0.248552
C55   C     C_3   0.734362 0.238883 0.413989 0.298628
C56   C     C_3   0.275803 0.748832 0.572611 0.246910
C57   C     C_3   0.760732 0.738266 0.592664 0.284535
C58   C     C_3   0.225037 0.249021 0.426484 0.247463
C59   C     C_3   0.215523 0.759149 0.414854 0.283729
C60   C     C_3   0.758867 0.267354 0.588291 0.248507
C61   C     C_3   0.296658 0.212647 0.508686 -0.223173
C62   C     C_3   0.708584 0.792113 0.498692 -0.153697
C63   C     C_3   0.704699 0.211612 0.500360 -0.200407
C64   C     C_3   0.288197 0.795321 0.496737 -0.153081
C65   C     C_3   0.793575 0.710011 0.508775 -0.223009
C66   C     C_3   0.212460 0.295924 0.502382 -0.154183
C67   C     C_3   0.203648 0.712355 0.491158 -0.223036
C68   C     C_3   0.789006 0.294286 0.501806 -0.149130
C69   C     C_3   0.554681 0.016226 0.028304 0.248501
C70   C     C_3   0.445258 0.985473 0.971126 0.250886
C71   C     C_3   0.055711 0.488794 0.028385 0.250442
C72   C     C_3   0.944463 0.512848 0.972354 0.252049
C73   C     C_3   0.500384 0.001575 0.091953 -0.264053
C74   C     C_3   0.499551 0.000021 0.907741 -0.260123
C75   C     C_3   0.000799 0.500056 0.092290 -0.261084
C76   C     C_3   0.999341 0.501400 0.908129 -0.259748
Cu1   Cu    Cu3+1 0.500000 0.000000 0.590220 1.005107
Cu2   Cu    Cu3+1 0.500000 0.000000 0.409780 1.006462
Cu3   Cu    Cu3+1 1.000000 0.500000 0.590220 1.000312
Cu4   Cu    Cu3+1 0.000000 0.500000 0.409780 1.004794
N1    N     N_1   0.499980 0.000000 0.274190 -0.160818
N2    N     N_1   0.500020 0.000000 0.725810 -0.162851
N3    N     N_1   0.999980 0.500000 0.274190 -0.162817
N4    N     N_1   0.000020 0.500000 0.725810 -0.164834
O1    O     O_R   0.439540 0.939530 0.576170 -0.567703
O2    O     O_R   0.560460 0.060470 0.423830 -0.579589
O3    O     O_R   0.560460 0.939530 0.423830 -0.570101
O4    O     O_R   0.439540 0.060470 0.576170 -0.582635
O5    O     O_R   0.939540 0.439530 0.576170 -0.570500
O6    O     O_R   0.060460 0.560470 0.423830 -0.582138
O7    O     O_R   0.060460 0.439530 0.423830 -0.567867
O8    O     O_R   0.939540 0.560470 0.576170 -0.588386
O9    O     O_R   0.439530 0.939530 0.423800 -0.560161
O10   O     O_R   0.560470 0.060470 0.576200 -0.563902
O11   O     O_R   0.560470 0.939530 0.576200 -0.557648
O12   O     O_R   0.439530 0.060470 0.423800 -0.561422
O13   O     O_R   0.939530 0.439530 0.423800 -0.557546
O14   O     O_R   0.060470 0.560470 0.576200 -0.560973
O15   O     O_R   0.060470 0.439530 0.576200 -0.558574
O16   O     O_R   0.939530 0.560470 0.423800 -0.563457
O17   O     O_3   0.389373 0.968824 0.935361 -0.609829
C77   C     C_3   0.346723 0.963562 0.006579 0.085699
H1    H     H_    0.333074 0.008284 0.031502 0.182921
H2    H     H_    0.364064 0.937625 0.065256 0.180144
C78   C     C_3   0.291545 0.932004 0.969727 -0.363760
H3    H     H_    0.272895 0.958239 0.912493 0.227127
H4    H     H_    0.304210 0.887304 0.943102 0.219257
C79   C     C_3   0.243799 0.924817 0.043863 -0.911637
H5    H     H_    0.261097 0.897633 0.100997 0.272613
H6    H     H_    0.204343 0.901966 0.014830 0.253820
H7    H     H_    0.229694 0.969070 0.070478 0.257492
O18   O     O_3   0.610920 0.033288 0.062494 -0.616924
C80   C     C_3   0.653143 0.036419 0.990264 0.095269
H8    H     H_    0.635013 0.059185 0.929040 0.177226
H9    H     H_    0.667662 0.990949 0.970355 0.185660
C81   C     C_3   0.707893 0.070898 0.022213 -0.361099
H10   H     H_    0.695146 0.117634 0.037851 0.213388
H11   H     H_    0.725387 0.050354 0.085472 0.230511
C82   C     C_3   0.756915 0.070847 0.949083 -0.940355
H12   H     H_    0.772159 0.024651 0.934856 0.261087
H13   H     H_    0.795489 0.097347 0.973307 0.258386
H14   H     H_    0.740330 0.090865 0.884899 0.258702
O19   O     O_3   0.887258 0.526310 0.938657 -0.623592
C83   C     C_3   0.845072 0.527870 0.011014 0.095696
H15   H     H_    0.861977 0.552364 0.071820 0.176956
H16   H     H_    0.833189 0.481891 0.031691 0.185940
C84   C     C_3   0.788462 0.558735 0.978497 -0.368039
H17   H     H_    0.798848 0.605450 0.959494 0.218395
H18   H     H_    0.771351 0.535370 0.916996 0.229056
C85   C     C_3   0.740188 0.558781 0.052764 -0.938596
H19   H     H_    0.726984 0.512433 0.069726 0.261687
H20   H     H_    0.700358 0.583005 0.028168 0.259535
H21   H     H_    0.756545 0.581242 0.115449 0.255298
O20   O     O_3   0.112622 0.475710 0.063565 -0.609938
C86   C     C_3   0.155357 0.473565 0.992051 0.085109
H22   H     H_    0.165837 0.519182 0.968000 0.183644
H23   H     H_    0.139682 0.446566 0.932983 0.179775
C87   C     C_3   0.212685 0.445875 0.027963 -0.361977
H24   H     H_    0.229371 0.472968 0.086085 0.227330
H25   H     H_    0.203306 0.400164 0.053062 0.219167
C88   C     C_3   0.260824 0.442821 0.953675 -0.913626
H26   H     H_    0.245526 0.414972 0.895539 0.272124
H27   H     H_    0.301825 0.422633 0.981959 0.254200
H28   H     H_    0.271709 0.488211 0.928678 0.257501
O21   O     O_3   0.205573 0.142313 0.495723 -0.607049
C89   C     C_3   0.142641 0.143774 0.498855 0.078308
H29   H     H_    0.124125 0.178512 0.453043 0.171316
H30   H     H_    0.126958 0.152524 0.569807 0.185141
C90   C     C_3   0.118594 0.083195 0.468811 -0.350622
H31   H     H_    0.134595 0.073000 0.398370 0.218026
H32   H     H_    0.135506 0.048148 0.515249 0.230133
C91   C     C_3   0.050576 0.082226 0.470519 -0.936879
H33   H     H_    0.033624 0.091099 0.540775 0.254926
H34   H     H_    0.034494 0.037804 0.448264 0.262733
H35   H     H_    0.032648 0.116324 0.423433 0.264373
O22   O     O_3   0.781093 0.853684 0.595762 -0.592865
C92   C     C_3   0.840467 0.854262 0.627249 0.126351
H36   H     H_    0.865736 0.888383 0.588117 0.147806
H37   H     H_    0.864626 0.811306 0.618292 0.138755
C93   C     C_3   0.840430 0.871696 0.728264 -0.331776
H38   H     H_    0.820247 0.916607 0.736703 0.226544
H39   H     H_    0.813023 0.839410 0.767745 0.239847
C94   C     C_3   0.903481 0.872562 0.766362 -0.962349
H40   H     H_    0.923928 0.827635 0.760753 0.255670
H41   H     H_    0.901883 0.885770 0.839525 0.260709
H42   H     H_    0.931527 0.905119 0.728507 0.261591
O23   O     O_3   0.782014 0.151946 0.591128 -0.607155
C95   C     C_3   0.842705 0.153135 0.615583 0.072873
H43   H     H_    0.855680 0.196606 0.646550 0.166861
H44   H     H_    0.871197 0.144595 0.554498 0.184527
C96   C     C_3   0.853906 0.103787 0.684908 -0.347872
H45   H     H_    0.825225 0.111006 0.746300 0.219712
H46   H     H_    0.842034 0.060045 0.654231 0.231497
C97   C     C_3   0.918995 0.102341 0.713979 -0.927825
H47   H     H_    0.948431 0.093877 0.653912 0.253850
H48   H     H_    0.925509 0.066074 0.764194 0.259217
H49   H     H_    0.931604 0.145301 0.746339 0.262091
O24   O     O_3   0.198954 0.866839 0.481904 -0.594511
C98   C     C_3   0.135945 0.867879 0.486767 0.124551
H50   H     H_    0.122425 0.890453 0.551388 0.147285
H51   H     H_    0.114603 0.823101 0.487029 0.142693
C99   C     C_3   0.111968 0.903679 0.406591 -0.331023
H52   H     H_    0.128401 0.950252 0.411237 0.223230
H53   H     H_    0.128656 0.884143 0.341359 0.241816
C100  C     C_3   0.043931 0.903872 0.406244 -0.972698
H54   H     H_    0.026672 0.857827 0.397791 0.262742
H55   H     H_    0.027946 0.931293 0.348533 0.258988
H56   H     H_    0.026186 0.923009 0.471113 0.259663
O25   O     O_3   0.719072 0.648507 0.413859 -0.608517
C101  C     C_3   0.659645 0.649719 0.383143 0.071261
H57   H     H_    0.648865 0.692314 0.348281 0.170125
H58   H     H_    0.628394 0.643477 0.441584 0.186248
C102  C     C_3   0.650668 0.598452 0.315674 -0.347633
H59   H     H_    0.681606 0.603870 0.256527 0.219832
H60   H     H_    0.661075 0.555605 0.349697 0.231138
C103  C     C_3   0.586774 0.596378 0.281116 -0.924888
H61   H     H_    0.555212 0.588749 0.338805 0.255429
H62   H     H_    0.582155 0.559351 0.231205 0.259160
H63   H     H_    0.575327 0.638770 0.246684 0.261076
O26   O     O_3   0.302457 0.366938 0.518979 -0.592914
C104  C     C_3   0.365416 0.367316 0.511701 0.125055
H64   H     H_    0.378154 0.388316 0.445775 0.149346
H65   H     H_    0.386315 0.322353 0.512725 0.142610
C105  C     C_3   0.391119 0.404535 0.589535 -0.332704
H66   H     H_    0.374541 0.450992 0.584510 0.224360
H67   H     H_    0.375926 0.386051 0.656071 0.238950
C106  C     C_3   0.459168 0.404796 0.586230 -0.971766
H68   H     H_    0.476659 0.358924 0.594945 0.265136
H69   H     H_    0.476451 0.433199 0.642304 0.258038
H70   H     H_    0.475442 0.422833 0.519983 0.260651
O27   O     O_3   0.294714 0.641841 0.502809 -0.607031
C107  C     C_3   0.357636 0.643321 0.498458 0.078508
H71   H     H_    0.376520 0.678039 0.544449 0.171470
H72   H     H_    0.372745 0.652102 0.427361 0.186186
C108  C     C_3   0.382006 0.582765 0.527049 -0.350058
H73   H     H_    0.367110 0.572782 0.597979 0.217555
H74   H     H_    0.364261 0.547647 0.480973 0.231051
C109  C     C_3   0.450009 0.581677 0.522694 -0.938283
H75   H     H_    0.465867 0.590224 0.451854 0.255801
H76   H     H_    0.466363 0.537325 0.544118 0.262435
H77   H     H_    0.468795 0.615929 0.569213 0.264483
O28   O     O_3   0.715693 0.353104 0.403859 -0.586477
C110  C     C_3   0.654588 0.367826 0.406402 0.103899
H78   H     H_    0.645823 0.397369 0.465920 0.157723
H79   H     H_    0.625031 0.328161 0.410868 0.146206
C111  C     C_3   0.639117 0.402064 0.319875 -0.340530
H80   H     H_    0.668520 0.441716 0.313709 0.230596
H81   H     H_    0.646836 0.373096 0.259181 0.215233
C112  C     C_3   0.574202 0.422434 0.321537 -0.949035
H82   H     H_    0.543883 0.383509 0.327645 0.258352
H83   H     H_    0.564101 0.446153 0.257162 0.260101
H84   H     H_    0.566074 0.453272 0.379897 0.259798
O29   O     O_3   0.645893 0.711793 0.580181 -0.566173
C113  C     C_3   0.653159 0.657998 0.628083 -0.270398
H85   H     H_    0.669986 0.666971 0.697814 0.210012
H86   H     H_    0.682893 0.625759 0.591854 0.160064
H87   H     H_    0.608882 0.636482 0.635601 0.164096
O30   O     O_3   0.334928 0.267686 0.364055 -0.578216
C114  C     C_3   0.317809 0.313004 0.303294 -0.287826
H88   H     H_    0.300932 0.353660 0.338588 0.177473
H89   H     H_    0.283782 0.296403 0.255115 0.187267
H90   H     H_    0.357412 0.326260 0.262247 0.169647
O31   O     O_3   0.325103 0.741924 0.350608 -0.564947
C115  C     C_3   0.305310 0.700410 0.285017 -0.264808
H91   H     H_    0.273654 0.721802 0.237567 0.207844
H92   H     H_    0.284763 0.660007 0.315968 0.161287
H93   H     H_    0.344317 0.685438 0.243848 0.164942
O32   O     O_3   0.643222 0.293365 0.583080 -0.583004
C116  C     C_3   0.651015 0.346584 0.633249 -0.297844
H94   H     H_    0.689515 0.374224 0.609992 0.169743
H95   H     H_    0.655852 0.336275 0.706693 0.182198
H96   H     H_    0.610189 0.374003 0.626489 0.165650
O33   O     O_3   0.174583 0.243125 0.647798 -0.564070
C117  C     C_3   0.193874 0.201773 0.713386 -0.264790
H97   H     H_    0.225456 0.223192 0.761240 0.207625
H98   H     H_    0.214317 0.161154 0.682434 0.161024
H99   H     H_    0.154619 0.187148 0.754112 0.164986
O34   O     O_3   0.856347 0.792048 0.429322 -0.580871
C118  C     C_3   0.849991 0.848612 0.389175 -0.299562
H100  H     H_    0.824339 0.880323 0.432797 0.179859
H101  H     H_    0.828816 0.844879 0.321328 0.188283
H102  H     H_    0.895033 0.867890 0.378454 0.174497
O35   O     O_3   0.849684 0.213308 0.417549 -0.570572
C119  C     C_3   0.841240 0.159129 0.370417 -0.255767
H103  H     H_    0.822518 0.167564 0.301806 0.213443
H104  H     H_    0.812569 0.127089 0.408642 0.164765
H105  H     H_    0.885342 0.137679 0.360163 0.161133
O36   O     O_3   0.166244 0.768147 0.636296 -0.577094
C120  C     C_3   0.183567 0.813965 0.696657 -0.287640
H106  H     H_    0.198276 0.855025 0.660832 0.178313
H107  H     H_    0.219279 0.798506 0.742589 0.187657
H108  H     H_    0.144641 0.826074 0.740168 0.171325
O37   O     O_3   0.728926 0.780978 0.324736 -0.609625
C121  C     C_3   0.761644 0.745103 0.262526 0.089846
H109  H     H_    0.742100 0.699784 0.259217 0.172573
H110  H     H_    0.809362 0.741291 0.281921 0.182086
C122  C     C_3   0.758513 0.772681 0.167443 -0.351722
H111  H     H_    0.711165 0.775676 0.146231 0.226494
H112  H     H_    0.777342 0.818434 0.169481 0.218266
C123  C     C_3   0.793208 0.735760 0.097075 -0.945269
H113  H     H_    0.840887 0.732709 0.116283 0.263045
H114  H     H_    0.790318 0.757125 0.029012 0.257490
H115  H     H_    0.774184 0.690258 0.092224 0.264998
O38   O     O_3   0.309752 0.270703 0.671770 -0.591800
C124  C     C_3   0.368270 0.248296 0.678934 0.073324
H116  H     H_    0.394554 0.281402 0.718195 0.162618
H117  H     H_    0.391974 0.243035 0.612397 0.124901
C125  C     C_3   0.367556 0.189863 0.732473 -0.401864
H118  H     H_    0.345673 0.197260 0.800040 0.214377
H119  H     H_    0.341333 0.155852 0.695051 0.225154
C126  C     C_3   0.430581 0.166500 0.747461 -0.816173
H120  H     H_    0.454234 0.160525 0.681073 0.262906
H121  H     H_    0.428443 0.122856 0.782646 0.263900
H122  H     H_    0.456121 0.198088 0.790623 0.253762
O39   O     O_3   0.309216 0.747230 0.653842 -0.609342
C127  C     C_3   0.291737 0.697771 0.707094 0.091247
H123  H     H_    0.309605 0.656080 0.676548 0.173556
H124  H     H_    0.242361 0.693890 0.713046 0.184636
C128  C     C_3   0.317225 0.704614 0.802965 -0.353631
H125  H     H_    0.366671 0.706787 0.798458 0.228853
H126  H     H_    0.300757 0.746768 0.834228 0.217217
C129  C     C_3   0.299120 0.652597 0.864024 -0.937416
H127  H     H_    0.249816 0.650341 0.871049 0.262252
H128  H     H_    0.318451 0.658806 0.932944 0.254999
H129  H     H_    0.315915 0.609985 0.834825 0.258232
O40   O     O_3   0.724955 0.223035 0.321716 -0.593173
C130  C     C_3   0.663851 0.224648 0.299177 0.083377
H130  H     H_    0.656997 0.260990 0.249189 0.155394
H131  H     H_    0.633247 0.233317 0.357978 0.126613
C131  C     C_3   0.646674 0.165411 0.254840 -0.342549
H132  H     H_    0.671726 0.159944 0.189529 0.214692
H133  H     H_    0.658936 0.128152 0.300656 0.233600
C132  C     C_3   0.579967 0.162361 0.236209 -0.873369
H134  H     H_    0.554189 0.165255 0.301258 0.264707
H135  H     H_    0.569303 0.119400 0.202346 0.279117
H136  H     H_    0.566564 0.199429 0.190886 0.234285
O41   O     O_3   0.192042 0.247272 0.344838 -0.609210
C133  C     C_3   0.209370 0.197437 0.291656 0.091776
H137  H     H_    0.191179 0.156005 0.322005 0.173308
H138  H     H_    0.258734 0.193256 0.286049 0.184469
C134  C     C_3   0.184159 0.203904 0.195649 -0.354558
H139  H     H_    0.134730 0.206589 0.199897 0.229275
H140  H     H_    0.201139 0.245688 0.164403 0.217060
C135  C     C_3   0.201829 0.151312 0.134788 -0.936431
H141  H     H_    0.251120 0.148416 0.128286 0.262103
H142  H     H_    0.182875 0.157345 0.065669 0.254353
H143  H     H_    0.184358 0.109090 0.163849 0.258796
O42   O     O_3   0.763855 0.729473 0.688153 -0.590102
C136  C     C_3   0.818864 0.705095 0.714803 0.066814
H144  H     H_    0.831231 0.726342 0.780618 0.157725
H145  H     H_    0.856292 0.714613 0.666733 0.126652
C137  C     C_3   0.812053 0.638160 0.730684 -0.398074
H146  H     H_    0.776615 0.630264 0.782838 0.216287
H147  H     H_    0.798368 0.615748 0.666520 0.222081
C138  C     C_3   0.870230 0.610992 0.763527 -0.820507
H148  H     H_    0.907487 0.622292 0.716361 0.262315
H149  H     H_    0.865747 0.561833 0.766714 0.285355
H150  H     H_    0.880876 0.628325 0.832446 0.249126
O43   O     O_3   0.774681 0.286610 0.676799 -0.608725
C139  C     C_3   0.747049 0.250317 0.743456 0.101398
H151  H     H_    0.770985 0.207321 0.748509 0.168120
H152  H     H_    0.699461 0.241055 0.727631 0.176134
C140  C     C_3   0.750221 0.281704 0.836172 -0.357563
H153  H     H_    0.797637 0.290120 0.853481 0.225916
H154  H     H_    0.726998 0.325296 0.832587 0.216496
C141  C     C_3   0.721513 0.244367 0.911553 -0.944856
H155  H     H_    0.674043 0.235164 0.895798 0.261563
H156  H     H_    0.723600 0.268887 0.977473 0.260369
H157  H     H_    0.745736 0.201627 0.918836 0.266940
O44   O     O_3   0.189906 0.769546 0.328360 -0.593539
C142  C     C_3   0.131161 0.747501 0.322116 0.070654
H158  H     H_    0.104842 0.780571 0.283339 0.163164
H159  H     H_    0.107882 0.742710 0.389019 0.125940
C143  C     C_3   0.131018 0.688799 0.268483 -0.398608
H160  H     H_    0.152448 0.695688 0.200551 0.213806
H161  H     H_    0.157248 0.654791 0.305387 0.225692
C144  C     C_3   0.067673 0.665847 0.254609 -0.819108
H162  H     H_    0.044395 0.660621 0.321380 0.263250
H163  H     H_    0.069163 0.621896 0.219681 0.263728
H164  H     H_    0.042139 0.697294 0.211664 0.251958
O45   O     O_3   0.418036 0.081448 0.067760 -0.578343
C145  C     C_3   0.391122 0.114381 0.997336 -0.302042
H165  H     H_    0.378100 0.086442 0.937873 0.179299
H166  H     H_    0.420688 0.150929 0.974051 0.199344
H167  H     H_    0.349849 0.135134 0.024991 0.169801
O46   O     O_3   0.581829 0.920364 0.931434 -0.580152
C146  C     C_3   0.607925 0.886458 0.001482 -0.271675
H168  H     H_    0.578718 0.848650 0.020714 0.196493
H169  H     H_    0.618764 0.913204 0.063317 0.179349
H170  H     H_    0.650356 0.867413 0.975056 0.172604
O47   O     O_3   0.527504 0.110845 0.928647 -0.582912
C147  C     C_3   0.543937 0.152066 0.996763 -0.312204
H171  H     H_    0.590070 0.143864 0.019723 0.196074
H172  H     H_    0.512881 0.152022 0.056376 0.194222
H173  H     H_    0.542925 0.197353 0.966964 0.170818
O48   O     O_3   0.472465 0.890227 0.068804 -0.576715
C148  C     C_3   0.455792 0.849924 0.999329 -0.263191
H174  H     H_    0.483847 0.853471 0.936493 0.189519
H175  H     H_    0.408285 0.855808 0.981691 0.181796
H176  H     H_    0.460911 0.803992 0.025582 0.170563
O49   O     O_3   0.966822 0.609166 0.072975 -0.582601
C149  C     C_3   0.946376 0.648985 0.006029 -0.302419
H177  H     H_    0.898097 0.642441 0.994826 0.180882
H178  H     H_    0.971153 0.645559 0.939937 0.188112
H179  H     H_    0.952354 0.695063 0.031896 0.169288
O50   O     O_3   0.034025 0.392012 0.929546 -0.576162
C150  C     C_3   0.053358 0.352883 0.998357 -0.262938
H180  H     H_    0.024899 0.354298 0.060999 0.189029
H181  H     H_    0.100273 0.362143 0.016480 0.182407
H182  H     H_    0.051613 0.306752 0.971195 0.170903
O51   O     O_3   0.076637 0.586071 0.932280 -0.578936
C151  C     C_3   0.101111 0.621485 0.002421 -0.296149
H183  H     H_    0.115430 0.595136 0.062504 0.177804
H184  H     H_    0.069217 0.656496 0.024456 0.200890
H185  H     H_    0.141255 0.644301 0.974919 0.169200
O52   O     O_3   0.923287 0.415614 0.067932 -0.578985
C152  C     C_3   0.898843 0.380402 0.997479 -0.274339
H186  H     H_    0.930331 0.344769 0.976475 0.196775
H187  H     H_    0.885625 0.406714 0.936722 0.178388
H188  H     H_    0.858034 0.358388 0.024229 0.174821

loop_
_geom_bond_atom_site_label_1
_geom_bond_atom_site_label_2
_ccdc_geom_bond_type
C92   H36   S    
C136  H145  S    
C110  H78   S    
C150  H182  S    
O21   C89   S    
C110  C111  S    
C96   H46   S    
C144  H162  S    
C7    O15   A    
C32   O32   S    
Cu3   O15   S    
O38   C124  S    
C94   H41   S    
C152  H187  S    
C26   C72   S    
C115  H91   S    
C121  H109  S    
C31   C59   S    
C99   H52   S    
C148  H176  S    
C117  H98   S    
C4    O12   A    
C126  H120  S    
Cu1   O4    S    
Cu2   O12   S    
C135  H141  S    
C70   C74   S    
C106  H70   S    
C123  H115  S    
C8    O8    A    
C15   C51   T    
C43   O27   S    
C33   C53   S    
C27   O49   S    
C113  H86   S    
Cu4   N3    S    
C27   C75   S    
C131  H133  S    
C125  C126  S    
C86   H22   S    
C139  H151  S    
C151  H184  S    
C88   H28   S    
C138  H149  S    
C3    O3    A    
C113  H87   S    
C108  H73   S    
C112  H82   S    
C38   C57   S    
C21   O47   S    
O40   C130  S    
C123  H113  S    
C96   H45   S    
C29   O29   S    
C87   H25   S    
C83   C84   S    
C127  H123  S    
C34   C54   S    
C92   C93   S    
C120  H107  S    
O49   C149  S    
C28   C71   S    
C150  H180  S    
C53   O38   S    
C89   H29   S    
C78   H3    S    
C86   H23   S    
C133  C134  S    
C103  H61   S    
C118  H101  S    
C87   C88   S    
C115  H93   S    
C1    C48   S    
C2    C47   S    
C3    C46   S    
C147  H173  S    
C41   O25   S    
C25   C76   S    
C85   H19   S    
C124  H117  S    
C44   C55   S    
C14   C50   T    
Cu1   N2    S    
C135  H143  S    
C39   C60   S    
C18   N2    T    
C81   H11   S    
C146  H170  S    
O44   C142  S    
C138  H148  S    
C107  H71   S    
C1    O9    A    
C134  H139  S    
C30   C61   S    
C3    O11   A    
C5    O5    A    
O31   C115  S    
C125  H119  S    
C80   H9    S    
Cu2   O3    S    
C101  H57   S    
Cu4   O13   S    
C142  H158  S    
C139  C140  S    
O24   C98   S    
C132  H134  S    
C70   O17   S    
O19   C83   S    
C79   H5    S    
C78   H4    S    
C116  H94   S    
C31   C43   S    
C9    C61   S    
C126  H121  S    
C112  H84   S    
C11   C63   S    
C90   H32   S    
C42   C53   S    
Cu3   N4    S    
C12   C64   S    
C100  H55   S    
C145  H165  S    
Cu1   O10   S    
C97   H47   S    
C133  H138  S    
C59   C67   S    
C141  H156  S    
C95   C96   S    
C119  H103  S    
C55   C63   S    
C56   C64   S    
C25   C71   S    
O29   C113  S    
C102  C103  S    
Cu1   O1    S    
C122  H111  S    
C100  H56   S    
C17   C73   S    
C104  H65   S    
C23   C70   S    
C30   O30   S    
C103  H63   S    
C19   N3    T    
C33   C66   S    
C4    C45   S    
C82   H13   S    
C57   O42   S    
C14   C66   S    
C129  H128  S    
O17   C77   S    
C2    O10   A    
C137  H146  S    
C108  C109  S    
C117  H99   S    
C6    O6    A    
C21   C69   S    
C93   H39   S    
C84   H18   S    
C109  H76   S    
C107  C108  S    
C134  C135  S    
C15   C67   S    
C26   C75   S    
C148  H174  S    
C114  H89   S    
C5    O13   A    
C102  H59   S    
C20   N4    T    
C13   C49   T    
C44   O28   S    
C109  H77   S    
C83   H16   S    
C143  C144  S    
C116  H96   S    
C29   C41   S    
C7    C50   S    
C91   H34   S    
O42   C136  S    
C150  H181  S    
C110  H79   S    
O20   C86   S    
C4    O4    A    
C111  H81   S    
C130  C131  S    
C58   O41   S    
C140  H154  S    
O34   C118  S    
C8    O16   A    
C152  H186  S    
C119  H105  S    
C127  H124  S    
C60   O43   S    
C115  H92   S    
C121  H110  S    
C77   H1    S    
C128  C129  S    
C99   H53   S    
Cu3   O5    S    
C24   O46   S    
C105  H66   S    
C43   C67   S    
C143  H160  S    
C122  C123  S    
C106  H69   S    
C38   C62   S    
C145  H167  S    
C9    C45   T    
C149  H177  S    
C121  C122  S    
C36   O36   S    
C11   C47   T    
C114  H88   S    
C137  C138  S    
C12   C48   T    
C71   O20   S    
O35   C119  S    
Cu1   Cu2   S    
C141  H157  S    
C6    O14   A    
C31   O31   S    
C139  H152  S    
C88   H27   S    
C69   O18   S    
O47   C147  S    
C34   O34   S    
C77   C78   S    
C104  H64   S    
C35   O35   S    
O46   C146  S    
C101  C102  S    
C129  H127  S    
C94   H40   S    
C69   C73   S    
C28   O50   S    
C98   C99   S    
C95   H44   S    
C92   H37   S    
C120  H106  S    
C10   C62   S    
C89   H30   S    
C25   O51   S    
C96   C97   S    
C142  C143  S    
C106  H68   S    
C94   H42   S    
O52   C152  S    
C103  H62   S    
C152  H188  S    
O23   C95   S    
C54   C62   S    
C149  H179  S    
C33   C37   S    
C130  H130  S    
C35   C39   S    
C128  H125  S    
C93   C94   S    
C117  H97   S    
C36   C56   S    
C89   C90   S    
O27   C107  S    
C105  C106  S    
C7    O7    A    
C146  H169  S    
C22   O48   S    
C29   C57   S    
C21   C23   S    
C72   O19   S    
C22   C24   S    
C85   H21   S    
C113  H85   S    
C32   C60   S    
C84   H17   S    
C28   C76   S    
O39   C127  S    
O32   C116  S    
C80   H8    S    
O30   C114  S    
C101  H58   S    
C16   C52   T    
C57   C65   S    
C151  H183  S    
C138  H150  S    
C82   H12   S    
C142  H159  S    
C144  H164  S    
C147  H171  S    
C143  H161  S    
Cu4   O7    S    
O50   C150  S    
C112  H83   S    
C90   H31   S    
C93   H38   S    
C136  C137  S    
Cu2   N1    S    
C100  H54   S    
O33   C117  S    
C145  H166  S    
C19   C75   S    
C33   O33   S    
C17   N1    T    
O25   C101  S    
C97   H48   S    
C132  H135  S    
C87   H24   S    
C98   H50   S    
O36   C120  S    
C60   C68   S    
C119  H104  S    
C131  H132  S    
C120  H108  S    
C30   C42   S    
C8    C49   S    
C99   C100  S    
C27   C72   S    
C131  C132  S    
C86   C87   S    
C140  H153  S    
C136  H144  S    
Cu3   O14   S    
C85   H20   S    
C146  H168  S    
C38   O22   S    
C72   C76   S    
C118  H102  S    
C109  H75   S    
C36   C67   S    
O51   C151  S    
C13   C65   S    
C129  H129  S    
C124  H116  S    
O22   C92   S    
C123  H114  S    
C124  C125  S    
C108  H74   S    
Cu2   O9    S    
C81   H10   S    
C20   C76   S    
C58   C66   S    
O43   C139  S    
C79   H6    S    
O26   C104  S    
C134  H140  S    
C10   C46   T    
C91   H35   S    
C5    C52   S    
C16   C68   S    
C6    C51   S    
C37   C58   S    
C80   C81   S    
Cu2   O2    S    
C18   C74   S    
C40   C59   S    
Cu4   O16   S    
Cu4   O6    S    
O41   C133  S    
C53   C61   S    
C23   C73   S    
C151  H185  S    
C34   C65   S    
O18   C80   S    
C24   C69   S    
C127  C128  S    
C1    O1    A    
C78   C79   S    
C116  H95   S    
C148  H175  S    
C35   C55   S    
C36   C40   S    
C126  H122  S    
C90   C91   S    
C132  H136  S    
C41   C65   S    
C102  H60   S    
C21   C74   S    
Cu1   O11   S    
C130  H131  S    
C144  H163  S    
C147  H172  S    
C133  H137  S    
C97   H49   S    
O37   C121  S    
C32   C44   S    
C79   H7    S    
C91   H33   S    
C77   H2    S    
C128  H126  S    
Cu3   O8    S    
C40   O24   S    
C56   O39   S    
C135  H142  S    
C105  H67   S    
C111  H80   S    
C26   O52   S    
C122  H112  S    
C104  C105  S    
C44   C68   S    
C118  H100  S    
C23   O45   S    
O48   C148  S    
C82   H14   S    
C29   C62   S    
C95   H43   S    
C149  H178  S    
C34   C38   S    
C31   C64   S    
C32   C63   S    
C107  H72   S    
C37   C61   S    
C59   O44   S    
C25   C27   S    
C111  C112  S    
C39   C63   S    
O45   C145  S    
C26   C28   S    
C40   C64   S    
C81   C82   S    
C125  H118  S    
C42   O26   S    
C84   C85   S    
C88   H26   S    
C71   C75   S    
C24   C74   S    
C141  H155  S    
C35   C68   S    
C54   O37   S    
C30   C58   S    
C22   C70   S    
C2    O2    A    
C114  H90   S    
C39   O23   S    
O28   C110  S    
C55   O40   S    
C41   C54   S    
Cu3   Cu4   S    
C43   C56   S    
C137  H147  S    
C140  C141  S    
C42   C66   S    
C22   C73   S    
C37   O21   S    
C83   H15   S    
C98   H51   S    
