data_mof_unit_1238.cif
_audit_creation_date              2012-12-10T18:07:31-0500
_audit_creation_method            fapswitch 2.2
_symmetry_space_group_name_H-M    P1
_symmetry_Int_Tables_number       1
_space_group_crystal_system       triclinic
_cell_length_a                    18.334303
_cell_length_b                    18.334288
_cell_length_c                    42.961048
_cell_angle_alpha                 90.000047
_cell_angle_beta                  89.99999
_cell_angle_gamma                 89.999976
_cell_volume                      14441.2012594

loop_
_atom_site_label
_atom_site_type_symbol
_atom_type_description
_atom_site_fract_x
_atom_site_fract_y
_atom_site_fract_z
_atom_type_partial_charge
C1    C     C_R   0.436790 0.978048 0.114358 0.325840
C2    C     C_R   0.063214 0.478067 0.385642 0.325824
C3    C     C_R   0.323813 0.729695 0.751667 0.131135
C4    C     C_R   0.269848 0.323873 0.246618 0.127870
C5    C     C_R   0.729697 0.676189 0.751672 0.131101
C6    C     C_R   0.323873 0.730152 0.246619 0.127867
C7    C     C_R   0.676186 0.270304 0.751671 0.131143
C8    C     C_R   0.196301 0.696301 0.250000 -0.169074
C9    C     C_R   0.804025 0.304025 0.750000 -0.170626
C10   C     C_R   0.303699 0.196301 0.250000 -0.169073
C11   C     C_R   0.695977 0.804029 0.749999 -0.170568
C12   C     C_R   0.803699 0.303699 0.250000 -0.169077
C13   C     C_R   0.520548 0.936387 0.614407 0.336664
C14   C     C_R   0.195974 0.695975 0.750000 -0.170633
C15   C     C_R   0.696301 0.803699 0.250000 -0.169075
C16   C     C_R   0.304026 0.195975 0.750000 -0.170646
C17   C     C_R   0.196295 0.303705 0.750000 -0.167799
C18   C     C_R   0.804033 0.695967 0.250000 -0.169786
C19   C     C_R   0.303704 0.803705 0.750000 -0.167798
C20   C     C_R   0.695967 0.195968 0.250000 -0.169792
C21   C     C_R   0.803706 0.696296 0.750000 -0.167778
C22   C     C_R   0.195967 0.304033 0.250000 -0.169788
C23   C     C_R   0.696295 0.196295 0.750000 -0.167792
C24   C     C_R   0.521954 0.063209 0.385641 0.325839
C25   C     C_R   0.304032 0.804033 0.250000 -0.169787
C26   C     C_R   0.500002 0.999995 0.065423 -0.261006
C27   C     C_R   0.500001 0.999993 0.934382 -0.296058
C28   C     C_R   0.000002 0.500000 0.065423 -0.261012
C29   C     C_R   0.999996 0.500000 0.934382 -0.296050
C30   C     C_R   0.999999 0.499995 0.565618 -0.296060
C31   C     C_R   0.999996 0.500005 0.434577 -0.260985
C32   C     C_R   0.500001 0.999999 0.565618 -0.296056
C33   C     C_R   0.499999 0.999999 0.434577 -0.261009
C34   C     C_3   0.380927 0.882474 0.138657 0.121926
C35   C     C_R   0.063612 0.520546 0.614406 0.336661
C36   C     C_3   0.309722 0.857117 0.153323 -0.799502
C37   C     C_3   0.622461 0.884052 0.862709 0.151499
C38   C     C_3   0.694762 0.859514 0.848838 -0.788217
C39   C     C_3   0.117537 0.380938 0.138658 0.121933
C40   C     C_3   0.142902 0.309733 0.153321 -0.799507
C41   C     C_3   0.115911 0.622499 0.862714 0.151487
C42   C     C_3   0.140430 0.694813 0.848851 -0.788256
C43   C     C_3   0.619075 0.117523 0.138656 0.121927
C44   C     C_3   0.690280 0.142880 0.153322 -0.799501
C45   C     C_3   0.377514 0.115925 0.862714 0.151500
C46   C     C_R   0.936785 0.521944 0.385641 0.325841
C47   C     C_3   0.305198 0.140452 0.848855 -0.788268
C48   C     C_3   0.882466 0.619063 0.138657 0.121927
C49   C     C_3   0.857101 0.690267 0.153321 -0.799510
C50   C     C_3   0.884088 0.377498 0.862713 0.151511
C51   C     C_3   0.859572 0.305182 0.848850 -0.788254
C52   C     C_3   0.877514 0.384073 0.637289 0.151500
C53   C     C_3   0.805200 0.359546 0.651151 -0.788251
C54   C     C_3   0.119100 0.382503 0.361347 0.121903
C55   C     C_3   0.190303 0.357167 0.346674 -0.799487
C56   C     C_3   0.615920 0.877509 0.637287 0.151504
C57   C     C_R   0.479453 0.063613 0.614406 0.336664
C58   C     C_3   0.640443 0.805195 0.651151 -0.788260
C59   C     C_3   0.617530 0.119067 0.361343 0.121925
C60   C     C_3   0.642891 0.190272 0.346678 -0.799507
C61   C     C_3   0.122490 0.615919 0.637286 0.151503
C62   C     C_3   0.194806 0.640444 0.651147 -0.788273
C63   C     C_3   0.880910 0.617511 0.361344 0.121930
C64   C     C_3   0.809704 0.642859 0.346676 -0.799500
C65   C     C_3   0.384082 0.122493 0.637287 0.151503
C66   C     C_3   0.359560 0.194808 0.651149 -0.788256
C67   C     C_3   0.382468 0.880934 0.361343 0.121931
C68   C     C_R   0.478045 0.936790 0.385641 0.325844
C69   C     C_3   0.357106 0.809729 0.346678 -0.799504
C70   C     C_3   0.212506 0.916119 0.292666 -0.831380
C71   C     C_3   0.820013 0.078586 0.778927 -0.704664
C72   C     C_3   0.083889 0.212507 0.292671 -0.831384
C73   C     C_3   0.921419 0.820014 0.778924 -0.704674
C74   C     C_3   0.787493 0.083881 0.292666 -0.831373
C75   C     C_3   0.179989 0.921411 0.778931 -0.704658
C76   C     C_3   0.916114 0.787495 0.292668 -0.831380
C77   C     C_3   0.078590 0.179990 0.778932 -0.704660
C78   C     C_3   0.213410 0.086717 0.705292 -0.834279
C79   C     C_R   0.435448 0.983228 0.081658 0.334208
C80   C     C_3   0.818217 0.919911 0.218739 -0.704341
C81   C     C_3   0.086727 0.786603 0.705288 -0.834254
C82   C     C_3   0.919914 0.181782 0.218740 -0.704340
C83   C     C_3   0.786590 0.913283 0.705288 -0.834211
C84   C     C_3   0.181780 0.080088 0.218741 -0.704342
C85   C     C_3   0.913286 0.213418 0.705291 -0.834201
C86   C     C_3   0.080087 0.818217 0.218739 -0.704337
C87   C     C_3   0.713412 0.413278 0.794712 -0.834195
C88   C     C_3   0.318216 0.580089 0.281262 -0.704348
C89   C     C_3   0.586674 0.713500 0.794698 -0.834004
C90   C     C_R   0.564325 0.982853 0.918199 0.351055
C91   C     C_3   0.419914 0.318218 0.281259 -0.704347
C92   C     C_3   0.286589 0.586717 0.794708 -0.834200
C93   C     C_3   0.681785 0.419911 0.281263 -0.704337
C94   C     C_3   0.413271 0.286607 0.794712 -0.834251
C95   C     C_3   0.580088 0.681784 0.281262 -0.704341
C96   C     C_3   0.712505 0.583880 0.207334 -0.831382
C97   C     C_3   0.320010 0.421410 0.721068 -0.704657
C98   C     C_3   0.583887 0.287510 0.207333 -0.831441
C99   C     C_3   0.421398 0.679988 0.721061 -0.704662
C100  C     C_3   0.287493 0.416119 0.207333 -0.831381
C101  C     C_R   0.016779 0.435449 0.081658 0.334213
C102  C     C_3   0.679983 0.578575 0.721084 -0.704717
C103  C     C_3   0.416118 0.712506 0.207334 -0.831382
C104  C     C_3   0.578584 0.320012 0.721075 -0.704673
C105  C     C_3   0.342221 0.911668 0.062357 0.150248
C106  C     C_3   0.291226 0.909062 0.034405 -0.805638
C107  C     C_3   0.635789 0.902823 0.946017 0.107249
C108  C     C_3   0.672775 0.905687 0.977718 -0.778641
C109  C     C_3   0.088356 0.342238 0.062355 0.150239
C110  C     C_3   0.090970 0.291244 0.034404 -0.805641
C111  C     C_3   0.097131 0.635818 0.946016 0.107251
C112  C     C_R   0.563610 0.979438 0.885593 0.336673
C113  C     C_R   0.017122 0.564328 0.918200 0.351058
C114  C     C_3   0.094259 0.672788 0.977721 -0.778675
C115  C     C_3   0.657783 0.088321 0.062356 0.150248
C116  C     C_3   0.708779 0.090924 0.034405 -0.805631
C117  C     C_3   0.364209 0.097154 0.946020 0.107233
C118  C     C_3   0.327227 0.094284 0.977723 -0.778637
C119  C     C_3   0.911653 0.657766 0.062356 0.150246
C120  C     C_3   0.909040 0.708759 0.034404 -0.805634
C121  C     C_3   0.902859 0.364195 0.946021 0.107228
C122  C     C_3   0.905736 0.327209 0.977722 -0.778647
C123  C     C_3   0.864204 0.402837 0.553982 0.107240
C124  C     C_R   0.564555 0.016764 0.081658 0.334211
C125  C     C_3   0.827218 0.405704 0.522281 -0.778651
C126  C     C_3   0.157817 0.411732 0.437640 0.150268
C127  C     C_3   0.208806 0.409140 0.465594 -0.805700
C128  C     C_3   0.597150 0.864199 0.553981 0.107238
C129  C     C_3   0.594278 0.827217 0.522279 -0.778643
C130  C     C_3   0.588338 0.157773 0.437643 0.150248
C131  C     C_3   0.590948 0.208768 0.465595 -0.805639
C132  C     C_3   0.135796 0.597150 0.553981 0.107236
C133  C     C_3   0.172778 0.594282 0.522279 -0.778658
C134  C     C_3   0.842201 0.588302 0.437643 0.150246
C135  C     C_R   0.435676 0.017132 0.918200 0.351054
C136  C     C_3   0.791201 0.590897 0.465593 -0.805639
C137  C     C_3   0.402852 0.135800 0.553981 0.107236
C138  C     C_3   0.405724 0.172783 0.522279 -0.778644
C139  C     C_3   0.411657 0.842229 0.437644 0.150246
C140  C     C_3   0.409048 0.791232 0.465595 -0.805638
C141  C     C_R   0.983226 0.564551 0.081658 0.334211
C142  C     C_R   0.982870 0.435672 0.918200 0.351047
C143  C     C_R   0.935673 0.482861 0.581801 0.351058
C144  C     C_R   0.064555 0.483253 0.418343 0.334208
C145  C     C_R   0.517132 0.935673 0.581800 0.351054
C146  C     C_R   0.516772 0.064552 0.418342 0.334211
C147  C     C_R   0.064325 0.517129 0.581800 0.351059
C148  C     C_R   0.021959 0.436792 0.114359 0.325842
C149  C     C_R   0.935441 0.516760 0.418342 0.334205
C150  C     C_R   0.482869 0.064326 0.581800 0.351055
C151  C     C_R   0.483226 0.935447 0.418342 0.334209
C152  C     C_R   0.500000 0.999999 0.131018 -0.376231
C153  C     C_R   0.500000 0.999996 0.868904 -0.402718
C154  C     C_R   0.000001 0.500000 0.131018 -0.376234
C155  C     C_R   0.999999 0.500000 0.868904 -0.402720
C156  C     C_R   1.000000 0.499998 0.631096 -0.402719
C157  C     C_R   0.999999 0.500003 0.368983 -0.376225
C158  C     C_R   0.500000 1.000000 0.631096 -0.402718
C159  C     C_R   0.020540 0.563614 0.885594 0.336660
C160  C     C_R   0.499999 1.000000 0.368982 -0.376233
C161  C     C_R   0.999995 0.500001 0.468807 0.432089
C162  C     C_R   0.999997 0.499997 0.531682 0.425539
C163  C     C_R   0.500000 0.999999 0.468807 0.432088
C164  C     C_R   0.500000 0.999999 0.531682 0.425555
C165  C     C_R   0.500003 0.999993 0.968318 0.425558
C166  C     C_R   0.500003 0.999994 0.031192 0.432091
C167  C     C_R   0.999998 0.500000 0.968318 0.425567
C168  C     C_R   0.000001 0.500000 0.031193 0.432095
C169  C     C_R   0.500000 0.000000 0.334414 0.859001
C170  C     C_R   0.563211 0.021948 0.114359 0.325839
C171  C     C_R   0.500000 1.000000 0.665607 0.864098
C172  C     C_R   1.000000 0.500001 0.334414 0.859012
C173  C     C_R   1.000000 0.500000 0.665608 0.864097
C174  C     C_R   1.000000 0.500000 0.834392 0.864100
C175  C     C_R   0.000000 0.500000 0.165586 0.858998
C176  C     C_R   0.500000 0.999999 0.834392 0.864093
C177  C     C_R   0.500000 1.000000 0.165586 0.859003
C178  C     C_R   0.359889 0.140111 0.250000 0.870050
C179  C     C_R   0.639988 0.860016 0.749999 0.830705
C180  C     C_R   0.859889 0.359888 0.250000 0.870050
C181  C     C_R   0.436389 0.020548 0.885594 0.336662
C182  C     C_R   0.139985 0.639986 0.750000 0.830668
C183  C     C_R   0.640111 0.859888 0.250000 0.870048
C184  C     C_R   0.360015 0.139986 0.750000 0.830665
C185  C     C_R   0.140111 0.640111 0.250000 0.870051
C186  C     C_R   0.860014 0.360014 0.750000 0.830672
C187  C     C_R   0.359891 0.859891 0.750000 0.871088
C188  C     C_R   0.639985 0.139986 0.250000 0.833538
C189  C     C_R   0.859891 0.640109 0.750000 0.871105
C190  C     C_R   0.139985 0.360015 0.250000 0.833540
C191  C     C_R   0.640109 0.140109 0.750000 0.871094
C192  C     C_R   0.978044 0.563208 0.114359 0.325842
C193  C     C_R   0.360015 0.860015 0.250000 0.833537
C194  C     C_R   0.140109 0.359891 0.750000 0.871090
C195  C     C_R   0.860015 0.639985 0.250000 0.833538
C196  C     C_R   0.230152 0.823873 0.253381 0.127869
C197  C     C_R   0.770304 0.176186 0.748330 0.131135
C198  C     C_R   0.176127 0.230153 0.253383 0.127867
C199  C     C_R   0.823816 0.770305 0.748328 0.131142
C200  C     C_R   0.769847 0.176127 0.253381 0.127870
C201  C     C_R   0.229695 0.823815 0.748331 0.131150
C202  C     C_R   0.823873 0.769847 0.253381 0.127867
C203  C     C_R   0.979455 0.436386 0.885593 0.336669
C204  C     C_R   0.176186 0.229696 0.748331 0.131143
C205  C     C_R   0.230364 0.176325 0.745695 0.129993
C206  C     C_R   0.770386 0.823859 0.250739 0.130693
C207  C     C_R   0.176324 0.769637 0.745695 0.129992
C208  C     C_R   0.823859 0.229613 0.250739 0.130692
C209  C     C_R   0.769639 0.823677 0.745693 0.129957
C210  C     C_R   0.229614 0.176141 0.250740 0.130693
C211  C     C_R   0.823675 0.230364 0.745695 0.129980
C212  C     C_R   0.176141 0.770386 0.250739 0.130692
C213  C     C_R   0.730364 0.323674 0.754306 0.129980
C214  C     C_R   0.936388 0.479447 0.614407 0.336667
C215  C     C_R   0.270386 0.676141 0.249261 0.130691
C216  C     C_R   0.676328 0.730368 0.754304 0.129928
C217  C     C_R   0.323860 0.270386 0.249261 0.130691
C218  C     C_R   0.269635 0.676325 0.754304 0.129980
C219  C     C_R   0.729614 0.323860 0.249262 0.130693
C220  C     C_R   0.323675 0.269637 0.754305 0.129996
C221  C     C_R   0.676141 0.729613 0.249261 0.130690
C222  C     C_R   0.730152 0.676126 0.246619 0.127869
C223  C     C_R   0.270305 0.323815 0.751669 0.131151
C224  C     C_R   0.676127 0.269848 0.246619 0.127879
H1    H     H_    0.425217 0.874650 0.156002 0.130920
H2    H     H_    0.691897 0.800828 0.842568 0.194370
H3    H     H_    0.818231 0.124012 0.306945 0.242568
H4    H     H_    0.175047 0.913360 0.730927 0.239460
H5    H     H_    0.130550 0.889362 0.785018 0.229444
H6    H     H_    0.164300 0.979741 0.778081 0.219751
H7    H     H_    0.221728 0.914118 0.797416 0.262194
H8    H     H_    0.935959 0.768976 0.245790 0.263710
H9    H     H_    0.970685 0.812249 0.296246 0.238490
H10   H     H_    0.917952 0.729801 0.300522 0.229521
H11   H     H_    0.875983 0.818237 0.306945 0.242570
H12   H     H_    0.086642 0.175044 0.730927 0.239461
H13   H     H_    0.125354 0.425225 0.156005 0.130919
H14   H     H_    0.020261 0.164300 0.778082 0.219746
H15   H     H_    0.085883 0.221731 0.797416 0.262197
H16   H     H_    0.110641 0.130552 0.785019 0.229441
H17   H     H_    0.232388 0.063788 0.751807 0.262911
H18   H     H_    0.189892 0.031832 0.701074 0.238825
H19   H     H_    0.271076 0.086766 0.697364 0.230194
H20   H     H_    0.181708 0.127102 0.691544 0.243476
H21   H     H_    0.826272 0.914053 0.266712 0.239523
H22   H     H_    0.833679 0.978337 0.218867 0.219050
H23   H     H_    0.775436 0.911505 0.200781 0.261726
H24   H     H_    0.153094 0.392987 0.118290 0.084516
H25   H     H_    0.867408 0.887718 0.212426 0.227965
H26   H     H_    0.063785 0.767605 0.751801 0.262908
H27   H     H_    0.031837 0.810111 0.701070 0.238824
H28   H     H_    0.086790 0.728938 0.697355 0.230188
H29   H     H_    0.127111 0.818319 0.691545 0.243470
H30   H     H_    0.914052 0.173729 0.266714 0.239523
H31   H     H_    0.887723 0.132590 0.212427 0.227964
H32   H     H_    0.978340 0.166322 0.218870 0.219053
H33   H     H_    0.911508 0.224564 0.200782 0.261726
H34   H     H_    0.767614 0.936215 0.751804 0.262900
H35   H     H_    0.109243 0.297011 0.174103 0.278906
H36   H     H_    0.810114 0.968168 0.701070 0.238823
H37   H     H_    0.728919 0.913242 0.697361 0.230168
H38   H     H_    0.818287 0.872890 0.691539 0.243462
H39   H     H_    0.173729 0.085948 0.266714 0.239523
H40   H     H_    0.166317 0.021663 0.218870 0.219051
H41   H     H_    0.224562 0.088493 0.200782 0.261726
H42   H     H_    0.132589 0.112282 0.212428 0.227965
H43   H     H_    0.936212 0.232383 0.751809 0.262900
H44   H     H_    0.968168 0.189889 0.701073 0.238820
H45   H     H_    0.913251 0.271091 0.697366 0.230171
H46   H     H_    0.137785 0.264396 0.136331 0.241596
H47   H     H_    0.872891 0.181729 0.691540 0.243459
H48   H     H_    0.085947 0.826271 0.266713 0.239523
H49   H     H_    0.021661 0.833678 0.218868 0.219052
H50   H     H_    0.088494 0.775436 0.200781 0.261725
H51   H     H_    0.112279 0.867409 0.212426 0.227963
H52   H     H_    0.732391 0.436213 0.748197 0.262905
H53   H     H_    0.689890 0.468163 0.798931 0.238829
H54   H     H_    0.771083 0.413234 0.802640 0.230172
H55   H     H_    0.681713 0.372885 0.808460 0.243457
H56   H     H_    0.326272 0.585947 0.233288 0.239524
H57   H     H_    0.200865 0.314440 0.160522 0.199025
H58   H     H_    0.333678 0.521663 0.281133 0.219048
H59   H     H_    0.275433 0.588495 0.299220 0.261727
H60   H     H_    0.367407 0.612281 0.287575 0.227965
H61   H     H_    0.563800 0.732344 0.748164 0.262877
H62   H     H_    0.531827 0.689884 0.798916 0.238815
H63   H     H_    0.586594 0.771205 0.802589 0.230116
H64   H     H_    0.627114 0.681926 0.808478 0.243409
H65   H     H_    0.414052 0.326271 0.233286 0.239525
H66   H     H_    0.478340 0.333680 0.281130 0.219056
H67   H     H_    0.411508 0.275437 0.299218 0.261725
H68   H     H_    0.126135 0.578944 0.845235 0.119918
H69   H     H_    0.387721 0.367410 0.287573 0.227963
H70   H     H_    0.267613 0.563787 0.748191 0.262903
H71   H     H_    0.310112 0.531832 0.798925 0.238815
H72   H     H_    0.228918 0.586760 0.802636 0.230175
H73   H     H_    0.318288 0.627109 0.808457 0.243461
H74   H     H_    0.673729 0.414054 0.233289 0.239525
H75   H     H_    0.666324 0.478337 0.281135 0.219048
H76   H     H_    0.724567 0.411502 0.299221 0.261726
H77   H     H_    0.632593 0.387718 0.287576 0.227966
H78   H     H_    0.436215 0.267603 0.748199 0.262908
H79   H     H_    0.150026 0.610927 0.883553 0.087376
H80   H     H_    0.468164 0.310109 0.798930 0.238820
H81   H     H_    0.413201 0.228943 0.802647 0.230189
H82   H     H_    0.372890 0.318332 0.808454 0.243469
H83   H     H_    0.585947 0.673728 0.233288 0.239523
H84   H     H_    0.521663 0.666322 0.281133 0.219051
H85   H     H_    0.588495 0.724566 0.299220 0.261726
H86   H     H_    0.612281 0.632592 0.287575 0.227963
H87   H     H_    0.731022 0.564041 0.254213 0.263708
H88   H     H_    0.687745 0.529311 0.203757 0.238489
H89   H     H_    0.770198 0.582036 0.199481 0.229523
H90   H     H_    0.132407 0.739330 0.866044 0.253076
H91   H     H_    0.681767 0.624012 0.193056 0.242569
H92   H     H_    0.324955 0.413360 0.769072 0.239455
H93   H     H_    0.335698 0.479740 0.721916 0.219748
H94   H     H_    0.278269 0.414115 0.702583 0.262194
H95   H     H_    0.369449 0.389360 0.714981 0.229444
H96   H     H_    0.564039 0.268972 0.254209 0.263715
H97   H     H_    0.529324 0.312276 0.203755 0.238502
H98   H     H_    0.582039 0.229822 0.199475 0.229534
H99   H     H_    0.624023 0.318249 0.193058 0.242578
H100  H     H_    0.413359 0.675038 0.769066 0.239460
H101  H     H_    0.199121 0.691974 0.842588 0.194377
H102  H     H_    0.479724 0.664284 0.721908 0.219715
H103  H     H_    0.414111 0.721735 0.702578 0.262198
H104  H     H_    0.389336 0.630558 0.714972 0.229436
H105  H     H_    0.268978 0.435959 0.254212 0.263706
H106  H     H_    0.312252 0.470688 0.203756 0.238489
H107  H     H_    0.229799 0.417963 0.199481 0.229523
H108  H     H_    0.318231 0.375988 0.193055 0.242569
H109  H     H_    0.675044 0.586661 0.769088 0.239475
H110  H     H_    0.664274 0.520252 0.721942 0.219756
H111  H     H_    0.721726 0.585840 0.702599 0.262215
H112  H     H_    0.392966 0.846916 0.118288 0.084519
H113  H     H_    0.108333 0.707146 0.827569 0.272656
H114  H     H_    0.630554 0.610634 0.714990 0.229431
H115  H     H_    0.435959 0.731022 0.254212 0.263710
H116  H     H_    0.470687 0.687748 0.203756 0.238490
H117  H     H_    0.417961 0.770200 0.199480 0.229523
H118  H     H_    0.375986 0.681767 0.193056 0.242569
H119  H     H_    0.586645 0.324954 0.769079 0.239459
H120  H     H_    0.520255 0.335702 0.721927 0.219757
H121  H     H_    0.585873 0.278273 0.702590 0.262199
H122  H     H_    0.610633 0.369451 0.714987 0.229444
H123  H     H_    0.309302 0.896979 0.083048 0.178368
H124  H     H_    0.574785 0.125349 0.156000 0.130921
H125  H     H_    0.386166 0.870372 0.058836 0.115084
H126  H     H_    0.320943 0.923772 0.012804 0.278378
H127  H     H_    0.268629 0.853203 0.031781 0.203374
H128  H     H_    0.245443 0.947959 0.037751 0.258455
H129  H     H_    0.670893 0.870235 0.930215 0.159547
H130  H     H_    0.582622 0.873789 0.948752 0.112228
H131  H     H_    0.638619 0.936722 0.994436 0.271714
H132  H     H_    0.680563 0.849492 0.986767 0.202041
H133  H     H_    0.726855 0.932578 0.975713 0.261047
H134  H     H_    0.103055 0.309322 0.083046 0.178360
H135  H     H_    0.607036 0.153079 0.118286 0.084518
H136  H     H_    0.129642 0.386192 0.058834 0.115087
H137  H     H_    0.076247 0.320957 0.012804 0.278379
H138  H     H_    0.146835 0.268663 0.031776 0.203375
H139  H     H_    0.052088 0.245450 0.037750 0.258454
H140  H     H_    0.129700 0.670944 0.930216 0.159566
H141  H     H_    0.126189 0.582663 0.948746 0.112221
H142  H     H_    0.063257 0.638605 0.994439 0.271708
H143  H     H_    0.150452 0.680610 0.986765 0.202048
H144  H     H_    0.067332 0.726850 0.975723 0.261062
H145  H     H_    0.690701 0.103013 0.083047 0.178366
H146  H     H_    0.735619 0.137758 0.136333 0.241588
H147  H     H_    0.613838 0.129617 0.058834 0.115083
H148  H     H_    0.679063 0.076210 0.012804 0.278379
H149  H     H_    0.731376 0.146783 0.031779 0.203372
H150  H     H_    0.754563 0.052028 0.037752 0.258454
H151  H     H_    0.329101 0.129742 0.930220 0.159547
H152  H     H_    0.417374 0.126192 0.948755 0.112232
H153  H     H_    0.361387 0.063252 0.994440 0.271718
H154  H     H_    0.319434 0.150477 0.986773 0.202043
H155  H     H_    0.273149 0.067389 0.975718 0.261047
H156  H     H_    0.896956 0.690683 0.083046 0.178362
H157  H     H_    0.685578 0.200844 0.160523 0.199027
H158  H     H_    0.870364 0.613814 0.058834 0.115085
H159  H     H_    0.923760 0.679045 0.012803 0.278384
H160  H     H_    0.853177 0.731345 0.031777 0.203374
H161  H     H_    0.947927 0.754550 0.037750 0.258452
H162  H     H_    0.870272 0.329086 0.930221 0.159541
H163  H     H_    0.873816 0.417356 0.948758 0.112240
H164  H     H_    0.936777 0.361363 0.994438 0.271725
H165  H     H_    0.849547 0.319418 0.986776 0.202047
H166  H     H_    0.932627 0.273129 0.975715 0.261040
H167  H     H_    0.829099 0.370251 0.569783 0.159546
H168  H     H_    0.702994 0.109219 0.174104 0.278910
H169  H     H_    0.917369 0.373800 0.551246 0.112229
H170  H     H_    0.861376 0.436734 0.505562 0.271716
H171  H     H_    0.819422 0.349510 0.513232 0.202045
H172  H     H_    0.773140 0.432601 0.524286 0.261048
H173  H     H_    0.190749 0.397070 0.416949 0.178398
H174  H     H_    0.113893 0.370412 0.441156 0.115077
H175  H     H_    0.179071 0.423809 0.487196 0.278377
H176  H     H_    0.231444 0.353296 0.468211 0.203388
H177  H     H_    0.254560 0.448073 0.462257 0.258468
H178  H     H_    0.629734 0.829089 0.569781 0.159546
H179  H     H_    0.421065 0.126142 0.845233 0.119912
H180  H     H_    0.626192 0.917362 0.551246 0.112232
H181  H     H_    0.563247 0.861378 0.505561 0.271716
H182  H     H_    0.650470 0.819421 0.513229 0.202044
H183  H     H_    0.567380 0.773140 0.524284 0.261045
H184  H     H_    0.603031 0.190691 0.416953 0.178366
H185  H     H_    0.629631 0.113825 0.441164 0.115084
H186  H     H_    0.576236 0.179052 0.487196 0.278378
H187  H     H_    0.646809 0.231361 0.468220 0.203375
H188  H     H_    0.552055 0.254554 0.462250 0.258453
H189  H     H_    0.170906 0.629733 0.569781 0.159551
H190  H     H_    0.389097 0.150038 0.883552 0.087377
H191  H     H_    0.082633 0.626191 0.551246 0.112228
H192  H     H_    0.138616 0.563257 0.505560 0.271728
H193  H     H_    0.180578 0.650475 0.513231 0.202048
H194  H     H_    0.226853 0.567379 0.524283 0.261048
H195  H     H_    0.809283 0.602990 0.416951 0.178367
H196  H     H_    0.886139 0.629605 0.441166 0.115087
H197  H     H_    0.820918 0.576187 0.487194 0.278378
H198  H     H_    0.768596 0.646752 0.468219 0.203378
H199  H     H_    0.745425 0.551994 0.462245 0.258452
H200  H     H_    0.370267 0.170910 0.569781 0.159546
H201  H     H_    0.260684 0.132427 0.866049 0.253094
H202  H     H_    0.373810 0.082638 0.551245 0.112233
H203  H     H_    0.436755 0.138623 0.505561 0.271720
H204  H     H_    0.349532 0.180579 0.513228 0.202045
H205  H     H_    0.432621 0.226860 0.524284 0.261045
H206  H     H_    0.396960 0.809314 0.416953 0.178360
H207  H     H_    0.370368 0.886179 0.441167 0.115088
H208  H     H_    0.423775 0.820943 0.487195 0.278383
H209  H     H_    0.353185 0.768650 0.468223 0.203375
H210  H     H_    0.447931 0.745440 0.462246 0.258447
H211  H     H_    0.308039 0.199145 0.842594 0.194376
H212  H     H_    0.264383 0.862237 0.136333 0.241588
H213  H     H_    0.292859 0.108362 0.827571 0.272643
H214  H     H_    0.874647 0.574775 0.156003 0.130920
H215  H     H_    0.846909 0.607016 0.118289 0.084518
H216  H     H_    0.890761 0.702989 0.174103 0.278908
H217  H     H_    0.862218 0.735605 0.136331 0.241593
H218  H     H_    0.799138 0.685561 0.160523 0.199027
H219  H     H_    0.873863 0.421051 0.845234 0.119910
H220  H     H_    0.849972 0.389070 0.883551 0.087379
H221  H     H_    0.867600 0.260665 0.866043 0.253086
H222  H     H_    0.800880 0.308017 0.842588 0.194375
H223  H     H_    0.314424 0.799155 0.160525 0.199026
H224  H     H_    0.891667 0.292851 0.827567 0.272648
H225  H     H_    0.921067 0.373857 0.654770 0.119910
H226  H     H_    0.889095 0.349957 0.616452 0.087377
H227  H     H_    0.760685 0.367564 0.633956 0.253084
H228  H     H_    0.808045 0.300855 0.657414 0.194376
H229  H     H_    0.792862 0.391643 0.672432 0.272651
H230  H     H_    0.074802 0.374661 0.344008 0.130923
H231  H     H_    0.107086 0.346946 0.381719 0.084532
H232  H     H_    0.235650 0.362296 0.363659 0.241571
H233  H     H_    0.185612 0.299204 0.339470 0.199030
H234  H     H_    0.297007 0.890780 0.174105 0.278910
H235  H     H_    0.202999 0.390836 0.325892 0.278926
H236  H     H_    0.626140 0.921064 0.654767 0.119906
H237  H     H_    0.650035 0.889083 0.616449 0.087380
H238  H     H_    0.699134 0.808037 0.657414 0.194377
H239  H     H_    0.608346 0.792861 0.672433 0.272645
H240  H     H_    0.632422 0.760677 0.633958 0.253084
H241  H     H_    0.625352 0.074778 0.343998 0.130920
H242  H     H_    0.653087 0.107024 0.381712 0.084520
H243  H     H_    0.637772 0.235611 0.363668 0.241591
H244  H     H_    0.700855 0.185567 0.339477 0.199028
H245  H     H_    0.578895 0.873846 0.845233 0.119885
H246  H     H_    0.609231 0.202989 0.325896 0.278909
H247  H     H_    0.078938 0.626139 0.654767 0.119915
H248  H     H_    0.110910 0.650034 0.616449 0.087375
H249  H     H_    0.239321 0.632418 0.633953 0.253091
H250  H     H_    0.191966 0.699136 0.657408 0.194378
H251  H     H_    0.207142 0.608352 0.672430 0.272645
H252  H     H_    0.925202 0.625343 0.344000 0.130924
H253  H     H_    0.892941 0.653069 0.381713 0.084519
H254  H     H_    0.764364 0.637737 0.363664 0.241581
H255  H     H_    0.814402 0.700821 0.339472 0.199029
H256  H     H_    0.610888 0.849936 0.883547 0.087386
H257  H     H_    0.796994 0.609193 0.325894 0.278914
H258  H     H_    0.373861 0.078940 0.654767 0.119914
H259  H     H_    0.349966 0.110916 0.616449 0.087377
H260  H     H_    0.391656 0.207143 0.672432 0.272651
H261  H     H_    0.367582 0.239324 0.633956 0.253084
H262  H     H_    0.300870 0.191968 0.657412 0.194377
H263  H     H_    0.374647 0.925222 0.343997 0.130919
H264  H     H_    0.346911 0.892978 0.381711 0.084518
H265  H     H_    0.362224 0.764391 0.363668 0.241592
H266  H     H_    0.299143 0.814434 0.339477 0.199027
H267  H     H_    0.707099 0.891621 0.827559 0.272674
H268  H     H_    0.390766 0.797010 0.325896 0.278906
H269  H     H_    0.231023 0.935959 0.245788 0.263709
H270  H     H_    0.187747 0.970687 0.296244 0.238490
H271  H     H_    0.270199 0.917962 0.300519 0.229523
H272  H     H_    0.181767 0.875987 0.306944 0.242569
H273  H     H_    0.824955 0.086644 0.730923 0.239461
H274  H     H_    0.869451 0.110637 0.785015 0.229440
H275  H     H_    0.835705 0.020257 0.778076 0.219752
H276  H     H_    0.778273 0.085874 0.797412 0.262196
H277  H     H_    0.064040 0.231025 0.245793 0.263709
H278  H     H_    0.739289 0.867509 0.866030 0.253060
H279  H     H_    0.029318 0.187755 0.296250 0.238491
H280  H     H_    0.082054 0.270201 0.300525 0.229524
H281  H     H_    0.124020 0.181764 0.306947 0.242573
H282  H     H_    0.913357 0.824954 0.730920 0.239462
H283  H     H_    0.979747 0.835705 0.778072 0.219756
H284  H     H_    0.914132 0.778274 0.797409 0.262199
H285  H     H_    0.889368 0.869451 0.785012 0.229448
H286  H     H_    0.768978 0.064041 0.245788 0.263709
H287  H     H_    0.812251 0.029312 0.296244 0.238488
H288  H     H_    0.729799 0.082038 0.300519 0.229522
N1    N     N_R   0.533418 0.054241 0.015163 -0.183953
N2    N     N_R   0.966567 0.554239 0.484838 -0.183951
N3    N     N_R   0.554161 0.033700 0.515788 -0.176970
N4    N     N_R   0.445749 0.966589 0.484837 -0.183954
N5    N     N_R   0.966277 0.554147 0.515789 -0.176951
N6    N     N_R   0.033424 0.445761 0.484836 -0.183946
N7    N     N_R   0.445839 0.966298 0.515788 -0.176968
N8    N     N_R   0.554251 0.033409 0.484837 -0.183952
N9    N     N_2   0.208792 0.896930 0.260062 -0.304520
N10   N     N_2   0.791202 0.101365 0.749058 -0.294809
N11   N     N_2   0.103071 0.208793 0.260066 -0.304522
N12   N     N_R   0.466297 0.945836 0.984212 -0.176969
N13   N     N_2   0.898638 0.791202 0.749055 -0.294813
N14   N     N_2   0.791208 0.103070 0.260062 -0.304519
N15   N     N_2   0.208798 0.898636 0.749061 -0.294807
N16   N     N_2   0.896929 0.791208 0.260063 -0.304522
N17   N     N_2   0.101365 0.208798 0.749061 -0.294806
N18   N     N_2   0.209504 0.103594 0.738123 -0.304775
N19   N     N_2   0.791293 0.898598 0.249122 -0.292629
N20   N     N_2   0.103594 0.790498 0.738121 -0.304778
N21   N     N_2   0.898598 0.208707 0.249123 -0.292631
N22   N     N_2   0.790500 0.896408 0.738121 -0.304775
N23   N     N_R   0.945743 0.533400 0.015164 -0.183955
N24   N     N_2   0.208707 0.101402 0.249123 -0.292630
N25   N     N_2   0.896406 0.209503 0.738123 -0.304774
N26   N     N_2   0.101402 0.791293 0.249122 -0.292630
N27   N     N_2   0.709504 0.396405 0.761880 -0.304779
N28   N     N_2   0.291293 0.601402 0.250879 -0.292628
N29   N     N_2   0.603594 0.709507 0.761871 -0.304760
N30   N     N_2   0.398598 0.291293 0.250877 -0.292628
N31   N     N_2   0.290497 0.603594 0.761876 -0.304779
N32   N     N_2   0.708708 0.398598 0.250879 -0.292628
N33   N     N_2   0.396406 0.290498 0.761879 -0.304779
N34   N     N_R   0.054166 0.466309 0.984212 -0.176975
N35   N     N_2   0.601402 0.708707 0.250879 -0.292628
N36   N     N_2   0.708791 0.603070 0.239938 -0.304520
N37   N     N_2   0.291202 0.398636 0.750938 -0.294807
N38   N     N_2   0.603071 0.291209 0.239938 -0.304520
N39   N     N_2   0.398633 0.708795 0.750934 -0.294783
N40   N     N_2   0.291208 0.396930 0.239937 -0.304519
N41   N     N_2   0.708797 0.601368 0.750951 -0.294809
N42   N     N_2   0.396929 0.708792 0.239938 -0.304520
N43   N     N_2   0.601365 0.291202 0.750944 -0.294815
N44   N     N_R   0.466587 0.945746 0.015163 -0.183953
N45   N     N_R   0.533709 0.054150 0.984212 -0.176971
N46   N     N_R   0.054257 0.466600 0.015163 -0.183961
N47   N     N_R   0.945832 0.533691 0.984213 -0.176969
N48   N     N_R   0.033716 0.445849 0.515787 -0.176953
O1    O     O_3   0.500000 0.000000 0.250000 -0.496789
O2    O     O_R   0.500000 0.939250 0.680570 -0.604454
O3    O     O_R   0.939250 0.500000 0.319430 -0.603653
O4    O     O_R   0.060750 0.500000 0.680570 -0.604453
O5    O     O_R   1.000000 0.439250 0.819430 -0.604452
O6    O     O_R   1.000000 0.560750 0.180570 -0.603653
O7    O     O_R   0.560750 0.000000 0.819430 -0.604449
O8    O     O_R   0.439250 0.000000 0.180570 -0.603653
O9    O     O_R   1.000000 0.560750 0.819430 -0.604451
O10   O     O_R   1.000000 0.439250 0.180570 -0.603654
O11   O     O_R   0.439250 0.000000 0.819430 -0.604453
O12   O     O_3   0.500000 0.000000 0.750000 -0.497365
O13   O     O_R   0.560750 0.000000 0.180570 -0.603653
O14   O     O_R   0.414500 0.146140 0.268270 -0.630162
O15   O     O_R   0.585500 0.853860 0.731730 -0.658138
O16   O     O_R   0.853860 0.414500 0.268270 -0.630157
O17   O     O_R   0.146140 0.585500 0.731730 -0.658148
O18   O     O_R   0.585500 0.853860 0.268270 -0.630160
O19   O     O_R   0.414500 0.146140 0.731730 -0.658155
O20   O     O_R   0.146140 0.585500 0.268270 -0.630159
O21   O     O_R   0.853860 0.414500 0.731730 -0.658154
O22   O     O_R   0.414500 0.853860 0.731730 -0.630819
O23   O     O_3   1.000000 0.500000 0.250000 -0.496787
O24   O     O_R   0.585500 0.146140 0.268270 -0.659247
O25   O     O_R   0.853860 0.585500 0.731730 -0.630838
O26   O     O_R   0.146140 0.414500 0.268270 -0.659255
O27   O     O_R   0.585500 0.146140 0.731730 -0.630832
O28   O     O_R   0.414500 0.853860 0.268270 -0.659242
O29   O     O_R   0.146140 0.414500 0.731730 -0.630828
O30   O     O_R   0.853860 0.585500 0.268270 -0.659248
O31   O     O_R   0.914500 0.646140 0.768270 -0.630834
O32   O     O_R   0.085500 0.353860 0.231730 -0.659240
O33   O     O_R   0.353860 0.914500 0.768270 -0.630829
O34   O     O_3   1.000000 0.500000 0.750000 -0.497364
O35   O     O_R   0.646140 0.085500 0.231730 -0.659241
O36   O     O_R   0.085500 0.353860 0.768270 -0.630826
O37   O     O_R   0.914500 0.646140 0.231730 -0.659241
O38   O     O_R   0.646140 0.085500 0.768270 -0.630832
O39   O     O_R   0.353860 0.914500 0.231730 -0.659244
O40   O     O_R   0.914500 0.353860 0.231730 -0.630162
O41   O     O_R   0.085500 0.646140 0.768270 -0.658158
O42   O     O_R   0.353860 0.085500 0.231730 -0.630160
O43   O     O_R   0.646140 0.914500 0.768270 -0.658170
O44   O     O_R   0.085500 0.646140 0.231730 -0.630161
O45   O     O_R   0.500000 0.939250 0.319430 -0.603653
O46   O     O_R   0.914500 0.353860 0.768270 -0.658152
O47   O     O_R   0.646140 0.914500 0.231730 -0.630159
O48   O     O_R   0.353860 0.085500 0.768270 -0.658145
O49   O     O_3   0.374041 0.956647 0.129811 -0.553307
O50   O     O_3   0.626933 0.959000 0.870365 -0.538554
O51   O     O_3   0.043366 0.374045 0.129811 -0.553299
O52   O     O_3   0.040960 0.626945 0.870367 -0.538552
O53   O     O_3   0.625960 0.043349 0.129811 -0.553307
O54   O     O_3   0.373061 0.040975 0.870367 -0.538547
O55   O     O_3   0.956637 0.625956 0.129811 -0.553303
O56   O     O_R   0.500000 0.060750 0.680570 -0.604451
O57   O     O_3   0.959038 0.373055 0.870366 -0.538547
O58   O     O_3   0.873060 0.459022 0.629634 -0.538548
O59   O     O_3   0.125968 0.456679 0.370190 -0.553330
O60   O     O_3   0.540970 0.873058 0.629634 -0.538550
O61   O     O_3   0.543358 0.125957 0.370189 -0.553307
O62   O     O_3   0.126941 0.540970 0.629633 -0.538549
O63   O     O_3   0.874033 0.543337 0.370188 -0.553310
O64   O     O_3   0.459031 0.126942 0.629634 -0.538548
O65   O     O_3   0.456640 0.874043 0.370189 -0.553303
O66   O     O_3   0.369582 0.983278 0.065676 -0.573867
O67   O     O_R   0.060750 0.500000 0.319430 -0.603650
O68   O     O_3   0.629638 0.974494 0.934055 -0.558488
O69   O     O_3   0.016740 0.369583 0.065676 -0.573863
O70   O     O_3   0.025461 0.629643 0.934057 -0.558495
O71   O     O_3   0.630422 0.016711 0.065677 -0.573866
O72   O     O_3   0.370363 0.025485 0.934057 -0.558488
O73   O     O_3   0.983267 0.630417 0.065676 -0.573864
O74   O     O_3   0.974525 0.370357 0.934056 -0.558486
O75   O     O_3   0.870359 0.474508 0.565944 -0.558484
O76   O     O_3   0.130419 0.483328 0.434325 -0.573888
O77   O     O_3   0.525481 0.870359 0.565943 -0.558489
O78   O     O_R   0.939250 0.500000 0.680570 -0.604453
O79   O     O_3   0.516726 0.130418 0.434324 -0.573867
O80   O     O_3   0.129638 0.525480 0.565943 -0.558486
O81   O     O_3   0.869574 0.516697 0.434322 -0.573870
O82   O     O_3   0.474521 0.129640 0.565943 -0.558488
O83   O     O_3   0.483270 0.869581 0.434323 -0.573864
O84   O     O_R   0.500000 0.060750 0.319430 -0.603653
Zn1   Zn    Zn3+2 0.413200 0.000000 0.224130 0.962951
Zn2   Zn    Zn3+2 0.086800 0.500000 0.275870 0.962943
Zn3   Zn    Zn3+2 0.500000 0.913200 0.724130 0.964445
Zn4   Zn    Zn3+2 0.500000 0.086800 0.275870 0.962952
Zn5   Zn    Zn3+2 0.086800 0.500000 0.724130 0.964449
Zn6   Zn    Zn3+2 0.913200 0.500000 0.275870 0.962950
Zn7   Zn    Zn3+2 0.500000 0.086800 0.724130 0.964447
Zn8   Zn    Zn3+2 0.500000 0.913200 0.275870 0.962953
Zn9   Zn    Zn3+2 0.586800 0.000000 0.775870 0.964437
Zn10  Zn    Zn3+2 0.000000 0.413200 0.224130 0.962955
Zn11  Zn    Zn3+2 1.000000 0.586800 0.775870 0.964447
Zn12  Zn    Zn3+2 0.586800 0.000000 0.224130 0.962954
Zn13  Zn    Zn3+2 0.413200 0.000000 0.775870 0.964448
Zn14  Zn    Zn3+2 1.000000 0.586800 0.224130 0.962954
Zn15  Zn    Zn3+2 1.000000 0.413200 0.775870 0.964447
Zn16  Zn    Zn3+2 0.913200 0.500000 0.724130 0.964446

loop_
_geom_bond_atom_site_label_1
_geom_bond_atom_site_label_2
_ccdc_geom_bond_type
H17   N18   S    
C169  O84   A    
C31   C161  S    
C101  C148  A    
C129  H181  S    
C126  C127  S    
O7    Zn9   S    
C102  H111  S    
C103  H117  S    
C130  O79   S    
C124  O71   S    
C140  H209  S    
C41   H79   S    
C64   H254  S    
C91   H67   S    
C137  H202  S    
C214  O58   S    
C195  O30   A    
H105  N40   S    
O29   Zn5   S    
C204  N17   S    
O2    Zn3   S    
C53   H227  S    
C115  H147  S    
C104  H121  S    
C41   H68   S    
C82   N21   S    
C84   N24   S    
C180  O40   A    
C34   O49   S    
C27   C90   A    
C183  O47   A    
C213  N27   S    
O47   Zn12  S    
C75   H5    S    
C102  H114  S    
C202  N16   S    
C173  O4    A    
C6    C215  A    
C71   H274  S    
C50   O57   S    
C120  H160  S    
C3    C19   A    
C207  N20   S    
C136  H199  S    
C7    N43   S    
C22   C190  S    
C141  O73   S    
C123  H169  S    
C11   C216  A    
H21   N19   S    
C81   N20   S    
O17   Zn5   S    
C131  H187  S    
C59   C60   S    
C200  C208  A    
C73   N13   S    
C75   N15   S    
O23   Zn2   S    
C61   O62   S    
C223  N37   S    
C172  O3    A    
C37   O50   S    
C14   C182  S    
H87   N36   S    
O23   Zn6   S    
C118  H155  S    
C45   C47   S    
C174  O9    A    
C60   H243  S    
C43   H135  S    
C156  C173  S    
C56   H237  S    
C185  O20   A    
C34   H1    S    
C49   H217  S    
C176  O11   A    
N3    N8    A    
C66   H260  S    
O16   Zn6   S    
C32   C145  A    
C9    C213  A    
C48   O55   S    
O44   Zn14  S    
C30   C143  A    
C105  H123  S    
C103  H116  S    
C103  N42   S    
C43   C44   S    
C95   H86   S    
C89   N29   S    
C37   C38   S    
C197  C211  A    
C108  H131  S    
O12   Zn9   S    
C184  O19   A    
C152  C170  A    
C63   H253  S    
C39   O51   S    
H92   N37   S    
C14   C218  A    
C114  H142  S    
C97   H93   S    
C186  O46   A    
C80   H23   S    
C217  N30   S    
C119  H156  S    
C125  H171  S    
C175  O10   A    
C96   H91   S    
C145  O77   S    
C191  O27   A    
C27   C165  S    
C97   N37   S    
C89   H63   S    
C99   N39   S    
C95   H85   S    
C77   H14   S    
C1    C79   A    
C82   H31   S    
C11   C179  S    
C30   C162  S    
H39   N24   S    
C38   H278  S    
C201  N15   S    
C99   H103  S    
O1    Zn1   S    
C34   H112  S    
C106  H127  S    
C139  H206  S    
C88   H58   S    
C67   H264  S    
C176  O7    A    
C139  C140  S    
C16   C184  S    
C142  O74   S    
O67   Zn2   S    
C40   H46   S    
C61   H247  S    
C74   H287  S    
C92   H73   S    
C86   H51   S    
O20   Zn2   S    
C130  C131  S    
C67   O65   S    
O45   Zn8   S    
C168  N46   A    
C6    C25   A    
C46   C157  A    
C85   H47   S    
C111  H141  S    
C36   H234  S    
C92   N31   S    
C50   H219  S    
O26   Zn2   S    
C37   H245  S    
C170  O53   S    
H48   N26   S    
C107  O68   S    
C15   C206  A    
C28   C168  S    
C113  O70   S    
C196  C212  A    
H115  N42   S    
C187  O33   A    
C52   H226  S    
C94   H82   S    
C79   O66   S    
C68   C151  A    
C93   H75   S    
C76   H10   S    
H282  N13   S    
C81   H29   S    
C68   C160  A    
C163  N4    A    
C42   H101  S    
C210  N24   S    
C118  H153  S    
C139  O83   S    
C63   H252  S    
C69   H266  S    
C15   C221  A    
C2    C144  A    
O39   Zn1   S    
C105  C106  S    
C55   H232  S    
C13   C145  A    
C128  C129  S    
C109  O69   S    
C30   C147  A    
C186  O21   A    
C100  H108  S    
C92   H71   S    
C54   O59   S    
C73   H285  S    
H269  N9    S    
C33   C163  S    
C193  O39   A    
O34   Zn5   S    
C108  H133  S    
C2    C157  A    
C203  O57   S    
C224  N38   S    
C195  O37   A    
C70   H271  S    
C132  O80   S    
C115  C116  S    
O1    Zn12  S    
C19   C201  A    
C70   N9    S    
C180  O16   A    
O14   Zn4   S    
C218  N31   S    
C20   C200  A    
C189  O25   A    
C219  C224  A    
C10   C210  A    
O31   Zn11  S    
C45   H190  S    
C110  H138  S    
C133  H193  S    
C77   H16   S    
C107  C108  S    
C166  N44   A    
H52   N27   S    
C90   O68   S    
O19   Zn7   S    
C47   H213  S    
C181  O54   S    
C111  H140  S    
C71   H275  S    
C46   O63   S    
C57   C150  A    
C17   C194  S    
C141  C192  A    
C136  H198  S    
C58   H239  S    
C21   C199  A    
N4    N7    A    
C155  C203  A    
C88   H60   S    
C134  H196  S    
C65   H258  S    
C130  H185  S    
C191  O38   A    
C144  O76   S    
C121  C122  S    
O9    Zn11  S    
C155  C159  A    
C86   H49   S    
H56   N28   S    
C98   H97   S    
C9    C186  S    
C33   C151  A    
C164  N3    A    
C39   C40   S    
C188  O24   A    
C135  O72   S    
H286  N14   S    
C51   H224  S    
C39   H24   S    
C87   H54   S    
C200  N14   S    
O3    Zn6   S    
C221  C222  A    
C17   C223  A    
C20   C188  S    
C36   H223  S    
C4    C22   A    
C21   C189  S    
O84   Zn4   S    
C83   N22   S    
C42   H90   S    
C102  N41   S    
C32   C150  A    
C113  C159  A    
C35   O62   S    
C121  O74   S    
C25   C196  A    
O23   Zn10  S    
C62   H250  S    
C174  O5    A    
C12   C180  S    
C69   H268  S    
C98   H99   S    
C117  H151  S    
C146  O79   S    
H30   N21   S    
C80   H22   S    
C83   H37   S    
C135  C181  A    
C187  O22   A    
O11   Zn13  S    
C39   H13   S    
C52   C53   S    
C72   H279  S    
H109  N41   S    
C197  N10   S    
C154  C192  A    
C54   C55   S    
H61   N29   S    
C84   H40   S    
O34   Zn11  S    
C23   C197  A    
C140  H210  S    
C123  O75   S    
C211  N25   S    
C61   H248  S    
C173  O78   A    
C59   H242  S    
C38   H2    S    
C112  C153  A    
C27   C135  A    
C44   H146  S    
C117  C118  S    
C94   N33   S    
C104  H122  S    
C196  N9    S    
C121  H163  S    
C3    C218  A    
C7    C23   A    
C32   C164  S    
C190  O32   A    
C56   C58   S    
C16   C220  A    
C34   C36   S    
C63   O63   S    
C61   C62   S    
C198  C210  A    
C138  H205  S    
C169  O45   A    
C33   C146  A    
C63   C64   S    
C107  H130  S    
C77   N17   S    
C89   H62   S    
C46   C149  A    
C204  C205  A    
O38   Zn9   S    
C6    N42   S    
H43   N25   S    
H273  N10   S    
H96   N38   S    
C28   C141  A    
C8    C212  A    
C78   H18   S    
C220  C223  A    
C10   C217  A    
C57   C158  A    
C122  H165  S    
C190  O26   A    
C41   C42   S    
C85   H44   S    
C140  H208  S    
O34   Zn15  S    
C127  H175  S    
C216  N29   S    
C116  H149  S    
O48   Zn13  S    
C60   H244  S    
C104  H120  S    
C51   H222  S    
C148  C154  A    
C127  H177  S    
C81   H27   S    
C71   N10   S    
C104  N43   S    
C130  H184  S    
C31   C149  A    
C123  C125  S    
C57   O64   S    
C2    O59   S    
C182  O41   A    
C85   H45   S    
C152  C177  S    
C56   O60   S    
C108  H132  S    
C19   C187  S    
C138  H203  S    
C28   C101  A    
C122  H166  S    
C4    N40   S    
C37   H256  S    
C114  H143  S    
H4    N15   S    
C15   C183  S    
C93   N32   S    
C47   H211  S    
C160  C169  S    
C56   H236  S    
C58   H240  S    
C125  H170  S    
C66   H262  S    
C126  H173  S    
C132  H189  S    
C54   H230  S    
O6    Zn14  S    
C133  H192  S    
C53   H229  S    
C52   O58   S    
C129  H182  S    
C137  O82   S    
C48   H214  S    
C102  H110  S    
C103  H118  S    
C82   H32   S    
C26   C124  A    
C13   O60   S    
C76   N16   S    
C119  O73   S    
N1    N45   A    
C178  O14   A    
O25   Zn16  S    
C119  H158  S    
C105  O66   S    
C205  N18   S    
C12   C208  A    
C53   H228  S    
O78   Zn16  S    
O41   Zn11  S    
C78   H20   S    
C5    C21   A    
C220  N33   S    
C75   H6    S    
C5    N41   S    
C43   O53   S    
C65   O64   S    
C116  H148  S    
O10   Zn10  S    
O13   Zn12  S    
C50   H220  S    
C50   C51   S    
C201  C207  A    
C120  H159  S    
C18   C202  A    
C87   H55   S    
C219  N32   S    
C206  N19   S    
C96   H88   S    
C134  O81   S    
C177  O13   A    
C131  H188  S    
C153  C181  A    
C115  O71   S    
O56   Zn7   S    
C72   H281  S    
C105  H125  S    
O12   Zn13  S    
C81   H28   S    
C1    O49   S    
C209  N22   S    
C164  N7    A    
C222  N36   S    
C95   H84   S    
C25   C193  S    
H12   N17   S    
C118  H154  S    
O36   Zn15  S    
O42   Zn1   S    
C69   H265  S    
C78   H19   S    
C18   C195  S    
C73   H283  S    
C22   C198  A    
C49   H218  S    
H34   N22   S    
C192  O55   S    
C119  C120  S    
H8    N16   S    
C95   N35   S    
C109  H134  S    
C92   H72   S    
C26   C79   A    
C165  N45   A    
C199  N13   S    
C73   H284  S    
C29   C167  S    
C151  O83   S    
N12   N44   A    
C182  O17   A    
C24   C146  A    
C109  C110  S    
C42   H113  S    
C70   H272  S    
C48   C49   S    
C97   H94   S    
C111  C114  S    
C198  N11   S    
C125  H172  S    
C208  N21   S    
C18   C222  A    
C188  O35   A    
C74   H288  S    
C44   H157  S    
C132  H191  S    
C67   H263  S    
C120  H161  S    
C147  O80   S    
O18   Zn8   S    
C110  H139  S    
C89   H64   S    
C29   C113  A    
C38   H267  S    
C77   H15   S    
O21   Zn16  S    
C78   N18   S    
O27   Zn7   S    
C162  N5    A    
C199  C209  A    
C178  O42   A    
C80   N19   S    
H74   N32   S    
C16   C205  A    
C99   H104  S    
C161  N2    A    
C91   H66   S    
C49   H216  S    
C193  O28   A    
C90   C112  A    
C8    C215  A    
C55   H235  S    
C23   C191  S    
O8    Zn1   S    
C86   N26   S    
C171  O2    A    
C84   H42   S    
C98   N38   S    
C153  C176  S    
C106  H126  S    
N6    N48   A    
C154  C175  S    
C1    C152  A    
C111  O70   S    
C179  O43   A    
C86   H50   S    
C93   H77   S    
C157  C172  S    
O35   Zn12  S    
C158  C171  S    
O24   Zn4   S    
C112  O50   S    
C177  O8    A    
H100  N39   S    
O5    Zn15  S    
C179  O15   A    
C14   C207  A    
C106  H128  S    
C87   H53   S    
C122  H164  S    
C31   C144  A    
C109  H136  S    
C47   H201  S    
C45   H179  S    
C139  H207  S    
C131  H186  S    
C52   H225  S    
C132  C133  S    
C94   H81   S    
C35   C156  A    
C93   H76   S    
C76   H9    S    
N34   N46   A    
C162  N48   A    
C12   C219  A    
C43   H124  S    
C62   H251  S    
C72   H280  S    
C155  C174  S    
C82   H33   S    
C128  H178  S    
H277  N11   S    
C175  O6    A    
O30   Zn6   S    
O40   Zn10  S    
C40   H35   S    
C116  H150  S    
H70   N31   S    
O4    Zn5   S    
O28   Zn8   S    
C20   C224  A    
C100  H107  S    
C87   N27   S    
C40   H57   S    
N23   N47   A    
C10   C178  S    
C96   N36   S    
C83   H36   S    
C183  O18   A    
O37   Zn14  S    
C167  N47   A    
C117  O72   S    
C184  O48   A    
C194  O29   A    
C215  N28   S    
C91   N30   S    
C134  C136  S    
C70   H270  S    
C5    C216  A    
C138  H204  S    
C91   H69   S    
C137  H200  S    
C59   H241  S    
C168  N23   A    
C67   C69   S    
H78   N33   S    
O15   Zn3   S    
C44   H168  S    
C17   C204  A    
C60   H246  S    
C166  N1    A    
C97   H95   S    
H83   N35   S    
C74   H3    S    
C48   H215  S    
C36   H212  S    
C110  H137  S    
C121  H162  S    
C100  N40   S    
C133  H194  S    
O23   Zn14  S    
C74   N14   S    
C41   O52   S    
C115  H145  S    
C35   C147  A    
C150  O82   S    
C167  N34   A    
C75   H7    S    
O12   Zn3   S    
C7    C213  A    
C148  O51   S    
C143  C214  A    
C107  H129  S    
C99   H102  S    
C126  O76   S    
O1    Zn4   S    
C189  O31   A    
C71   H276  S    
C4    C217  A    
O33   Zn13  S    
C80   H25   S    
C156  C214  A    
H119  N43   S    
C117  H152  S    
N2    N5    A    
C136  H197  S    
C58   H238  S    
C55   H233  S    
C88   H59   S    
C13   C158  A    
C134  H195  S    
C65   H259  S    
O46   Zn15  S    
C26   C166  S    
H65   N30   S    
C100  H106  S    
C212  N26   S    
C161  N6    A    
C24   O61   S    
C94   H80   S    
C165  N12   A    
C163  N8    A    
O34   Zn16  S    
C24   C160  A    
C129  H183  S    
C185  O44   A    
H26   N20   S    
C8    C185  S    
C137  C138  S    
C68   O65   S    
O32   Zn10  S    
C51   H221  S    
C66   H261  S    
C101  O69   S    
C142  C203  A    
C128  O77   S    
C85   N25   S    
C11   C209  A    
C149  O81   S    
O22   Zn3   S    
C143  O75   S    
C9    C211  A    
C29   C142  A    
C88   N28   S    
C64   H257  S    
C59   O61   S    
C84   H41   S    
C64   H255  S    
C76   H11   S    
C127  H176  S    
C72   N11   S    
C45   O54   S    
O12   Zn7   S    
C3    N39   S    
C62   H249  S    
C124  C170  A    
C98   H98   S    
C114  H144  S    
C65   C66   S    
C202  C206  A    
O1    Zn8   S    
C221  N35   S    
C171  O56   A    
C128  H180  S    
C83   H38   S    
C159  O52   S    
C194  O36   A    
C96   H89   S    
C126  H174  S    
C54   H231  S    
C172  O67   A    
C123  H167  S    
O43   Zn9   S    
