data_mof_unit_449.cif
_audit_creation_date              2013-03-05T15:41:01-0500
_audit_creation_method            fapswitch 2.2
_symmetry_space_group_name_H-M    P1
_symmetry_Int_Tables_number       1
_space_group_crystal_system       triclinic
_cell_length_a                    28.06743
_cell_length_b                    18.509675
_cell_length_c                    16.802021
_cell_angle_alpha                 89.99962
_cell_angle_beta                  61.021087
_cell_angle_gamma                 89.9994
_cell_volume                      7636.08552469

loop_
_atom_site_label
_atom_site_type_symbol
_atom_site_description
_atom_site_fract_x
_atom_site_fract_y
_atom_site_fract_z
_atom_type_partial_charge
O1    O     O_R   0.746490 0.236330 0.638080 -0.613346
O2    O     O_R   0.253510 0.763670 0.361920 -0.601188
O3    O     O_R   0.253510 0.236330 0.361920 -0.601175
O4    O     O_R   0.746490 0.763670 0.638080 -0.613318
O5    O     O_R   0.246490 0.736330 0.638080 -0.613342
O6    O     O_R   0.753510 0.263670 0.361920 -0.601214
O7    O     O_R   0.753510 0.736330 0.361920 -0.601182
O8    O     O_R   0.246490 0.263670 0.638080 -0.613307
O9    O     O_R   0.674170 0.186160 0.516270 -0.646086
O10   O     O_R   0.325830 0.813840 0.483730 -0.630989
O11   O     O_R   0.325830 0.186160 0.483730 -0.630956
O12   O     O_R   0.674170 0.813840 0.516270 -0.646005
O13   O     O_R   0.174170 0.686160 0.516270 -0.646007
O14   O     O_R   0.825830 0.313840 0.483730 -0.630977
O15   O     O_R   0.825830 0.686160 0.483730 -0.630983
O16   O     O_R   0.174170 0.313840 0.516270 -0.646011
O17   O     O_R   0.739960 0.127620 0.525000 -0.582973
O18   O     O_R   0.260040 0.872380 0.475000 -0.580018
O19   O     O_R   0.260040 0.127620 0.475000 -0.580010
O20   O     O_R   0.739960 0.872380 0.525000 -0.582973
O21   O     O_R   0.239960 0.627620 0.525000 -0.582991
O22   O     O_R   0.760040 0.372380 0.475000 -0.580024
O23   O     O_R   0.760040 0.627620 0.475000 -0.580017
O24   O     O_R   0.239960 0.372380 0.525000 -0.582986
O25   O     O_R   0.680700 0.294870 0.629350 -0.628513
O26   O     O_R   0.319300 0.705130 0.370650 -0.620083
O27   O     O_R   0.319300 0.294870 0.370650 -0.620087
O28   O     O_R   0.680700 0.705130 0.629350 -0.628570
O29   O     O_R   0.180700 0.794870 0.629350 -0.628576
O30   O     O_R   0.819300 0.205130 0.370650 -0.620079
O31   O     O_R   0.819300 0.794870 0.370650 -0.620078
O32   O     O_R   0.180700 0.205130 0.629350 -0.628579
C1    C     C_R   0.700265 0.264731 0.677527 0.873644
C2    C     C_R   0.299835 0.735452 0.322465 0.917865
C3    C     C_R   0.299835 0.264547 0.322466 0.917852
C4    C     C_R   0.700265 0.735269 0.677526 0.873561
C5    C     C_R   0.200265 0.764731 0.677527 0.873594
C6    C     C_R   0.799835 0.235452 0.322465 0.917874
C7    C     C_R   0.799835 0.764547 0.322466 0.917844
C8    C     C_R   0.200265 0.235270 0.677527 0.873541
C9    C     C_R   0.691026 0.129484 0.536251 0.889737
C10   C     C_R   0.303002 0.871712 0.485224 0.907764
C11   C     C_R   0.302999 0.128286 0.485232 0.907722
C12   C     C_R   0.691026 0.870516 0.536253 0.889675
C13   C     C_R   0.191027 0.629484 0.536251 0.889721
C14   C     C_R   0.803004 0.371713 0.485221 0.907752
C15   C     C_R   0.803004 0.628287 0.485219 0.907744
C16   C     C_R   0.191027 0.370515 0.536252 0.889697
Zn1   Zn    Zn3+2 0.792340 0.208750 0.507670 1.131545
Zn2   Zn    Zn3+2 0.207660 0.791250 0.492330 1.114331
Zn3   Zn    Zn3+2 0.207660 0.208750 0.492330 1.114344
Zn4   Zn    Zn3+2 0.792340 0.791250 0.507670 1.131564
Zn5   Zn    Zn3+2 0.292340 0.708750 0.507670 1.131528
Zn6   Zn    Zn3+2 0.707660 0.291250 0.492330 1.114259
Zn7   Zn    Zn3+2 0.707660 0.708750 0.492330 1.114339
Zn8   Zn    Zn3+2 0.292340 0.291250 0.507670 1.131584
C17   C     C_R   0.519358 0.131334 0.600516 -0.071786
C18   C     C_R   0.425392 0.868852 0.579303 -0.076666
C19   C     C_R   0.425365 0.131136 0.579351 -0.076634
C20   C     C_R   0.519375 0.868671 0.600492 -0.071906
C21   C     C_R   0.019386 0.631328 0.600469 -0.071907
C22   C     C_R   0.925403 0.368857 0.579276 -0.076661
C23   C     C_R   0.925404 0.631144 0.579275 -0.076661
C24   C     C_R   0.019386 0.368672 0.600469 -0.071916
C25   C     C_R   0.491576 0.196838 0.607380 0.223403
C26   C     C_R   0.445186 0.803057 0.595220 0.207990
C27   C     C_R   0.445146 0.196932 0.595285 0.207999
C28   C     C_R   0.491607 0.803169 0.607333 0.223649
C29   C     C_R   0.991612 0.696827 0.607321 0.223659
C30   C     C_R   0.945193 0.303063 0.595205 0.207989
C31   C     C_R   0.945192 0.696938 0.595205 0.207977
C32   C     C_R   0.991613 0.303172 0.607319 0.223653
C33   C     C_R   0.451192 0.065779 0.578120 -0.006923
C34   C     C_R   0.497923 0.934185 0.589063 -0.009170
C35   C     C_R   0.497911 0.065815 0.589084 -0.009189
C36   C     C_R   0.451205 0.934214 0.578096 -0.006917
C37   C     C_R   0.951224 0.565783 0.578052 -0.006915
C38   C     C_R   0.997941 0.434186 0.589022 -0.009172
C39   C     C_R   0.997942 0.565814 0.589021 -0.009178
C40   C     C_R   0.951224 0.434218 0.578053 -0.006917
C41   C     C_R   0.929703 0.500000 0.567317 0.034802
C42   C     C_R   0.023239 0.500000 0.588746 0.037281
C43   C     C_R   0.429678 0.999996 0.567371 0.034803
C44   C     C_R   0.523218 0.000002 0.588792 0.037267
C45   C     C_R   0.864533 0.434316 0.536601 0.029574
C46   C     C_R   0.100407 0.566097 0.582664 0.026216
C47   C     C_R   0.100406 0.433902 0.582667 0.026228
C48   C     C_R   0.864533 0.565685 0.536600 0.029570
C49   C     C_R   0.364521 0.934310 0.536626 0.029569
C50   C     C_R   0.600396 0.066102 0.582673 0.026175
C51   C     C_R   0.600397 0.933904 0.582681 0.026255
C52   C     C_R   0.364511 0.065678 0.536645 0.029559
C53   C     C_R   0.826741 0.435747 0.501746 -0.123043
C54   C     C_R   0.156072 0.565150 0.562296 -0.107525
C55   C     C_R   0.156071 0.434848 0.562299 -0.107517
C56   C     C_R   0.826741 0.564253 0.501746 -0.123036
C57   C     C_R   0.326734 0.935744 0.501761 -0.123037
C58   C     C_R   0.656065 0.065154 0.562296 -0.107509
C59   C     C_R   0.656066 0.934850 0.562301 -0.107527
C60   C     C_R   0.326729 0.064250 0.501771 -0.123051
C61   C     C_R   0.810568 0.500001 0.482059 -0.238111
C62   C     C_R   0.181871 0.499999 0.555508 -0.186232
C63   C     C_R   0.310561 0.999998 0.482073 -0.238105
C64   C     C_R   0.681864 0.000001 0.555508 -0.186251
H1    H     H_    0.783450 0.500001 0.452949 0.231232
H2    H     H_    0.224360 0.499999 0.538630 0.214292
H3    H     H_    0.283450 0.999999 0.452950 0.231234
H4    H     H_    0.724354 0.000001 0.538626 0.214279
C65   C     C_R   0.886890 0.500000 0.545363 0.076245
C66   C     C_R   0.074469 0.499999 0.585714 0.078180
C67   C     C_R   0.386870 0.999995 0.545406 0.076257
C68   C     C_R   0.574455 0.000003 0.585741 0.078200
C69   C     C_R   0.069549 0.369706 0.600382 -0.145812
C70   C     C_R   0.879700 0.629264 0.565980 -0.155043
C71   C     C_R   0.879700 0.370737 0.565982 -0.155047
C72   C     C_R   0.069550 0.630292 0.600380 -0.145812
C73   C     C_R   0.569543 0.869706 0.600393 -0.145833
C74   C     C_R   0.379665 0.129254 0.566046 -0.155084
C75   C     C_R   0.379690 0.870729 0.566001 -0.155052
C76   C     C_R   0.569539 0.130303 0.600370 -0.145778
H5    H     H_    0.084155 0.320093 0.614092 0.215190
H6    H     H_    0.855401 0.677379 0.582744 0.209021
H7    H     H_    0.855401 0.322623 0.582746 0.209015
H8    H     H_    0.084155 0.679897 0.614100 0.215188
H9    H     H_    0.584154 0.820093 0.614088 0.215195
H10   H     H_    0.355360 0.177364 0.582808 0.209005
H11   H     H_    0.355397 0.822610 0.582752 0.209020
H12   H     H_    0.584166 0.179931 0.613995 0.215473
C77   C     C_R   0.717420 0.260330 0.957994 0.027747
C78   C     C_R   0.283826 0.741541 0.041014 0.031167
C79   C     C_R   0.283819 0.258470 0.041021 0.031159
C80   C     C_R   0.717423 0.739663 0.957991 0.027742
C81   C     C_R   0.217419 0.760330 0.957994 0.027746
C82   C     C_R   0.783827 0.241542 0.041013 0.031168
C83   C     C_R   0.783829 0.758455 0.041012 0.031165
C84   C     C_R   0.217413 0.239678 0.958000 0.027721
C85   C     C_R   0.764857 0.217728 0.914616 -0.024120
C86   C     C_R   0.236429 0.784194 0.084351 -0.012457
C87   C     C_R   0.236425 0.215814 0.084356 -0.012460
C88   C     C_R   0.764859 0.782267 0.914613 -0.024116
C89   C     C_R   0.264857 0.717727 0.914616 -0.024120
C90   C     C_R   0.736430 0.284194 0.084350 -0.012452
C91   C     C_R   0.736433 0.715802 0.084349 -0.012456
C92   C     C_R   0.264847 0.282287 0.914626 -0.024142
C93   C     C_R   0.799455 0.211157 0.954283 0.071350
C94   C     C_R   0.201814 0.790729 0.044725 0.089622
C95   C     C_R   0.201810 0.209278 0.044729 0.089630
C96   C     C_R   0.799457 0.788840 0.954281 0.071354
C97   C     C_R   0.299455 0.711156 0.954283 0.071355
C98   C     C_R   0.701815 0.290729 0.044724 0.089626
C99   C     C_R   0.701819 0.709265 0.044721 0.089625
C100  C     C_R   0.299444 0.288860 0.954294 0.071409
C101  C     C_R   0.638128 0.315779 0.957066 0.094857
C102  C     C_R   0.362743 0.685407 0.042420 0.080713
C103  C     C_R   0.362737 0.314602 0.042425 0.080773
C104  C     C_R   0.638132 0.684215 0.957063 0.094859
C105  C     C_R   0.138128 0.815779 0.957066 0.094854
C106  C     C_R   0.862744 0.185408 0.042420 0.080709
C107  C     C_R   0.862744 0.814593 0.042420 0.080713
C108  C     C_R   0.138126 0.184222 0.957067 0.094861
C109  C     C_R   0.612528 0.339472 0.905600 -0.140318
C110  C     C_R   0.387937 0.661059 0.094194 -0.132440
C111  C     C_R   0.387934 0.338945 0.094196 -0.132438
C112  C     C_R   0.612530 0.660525 0.905599 -0.140289
C113  C     C_R   0.112528 0.839472 0.905600 -0.140290
C114  C     C_R   0.887937 0.161059 0.094193 -0.132440
C115  C     C_R   0.887937 0.838942 0.094194 -0.132439
C116  C     C_R   0.112527 0.160528 0.905600 -0.140291
C117  C     C_R   0.630697 0.315176 0.818170 -0.276484
C118  C     C_R   0.369558 0.685026 0.181834 -0.285226
C119  C     C_R   0.369557 0.314973 0.181835 -0.285240
C120  C     C_R   0.630698 0.684823 0.818170 -0.276548
C121  C     C_R   0.130697 0.815176 0.818170 -0.276552
C122  C     C_R   0.869558 0.185027 0.181834 -0.285228
C123  C     C_R   0.869558 0.814974 0.181835 -0.285223
C124  C     C_R   0.130696 0.184823 0.818170 -0.276544
H13   H     H_    0.612062 0.335789 0.779285 0.208040
H14   H     H_    0.387861 0.663877 0.220971 0.195148
H15   H     H_    0.387862 0.336119 0.220970 0.195144
H16   H     H_    0.612062 0.664213 0.779286 0.207995
H17   H     H_    0.112062 0.835789 0.779285 0.207993
H18   H     H_    0.887861 0.163877 0.220971 0.195147
H19   H     H_    0.887860 0.836123 0.220971 0.195148
H20   H     H_    0.112063 0.164209 0.779283 0.207994
C125  C     C_R   0.675131 0.270007 0.777069 -0.067654
C126  C     C_R   0.325266 0.730483 0.222817 -0.078491
C127  C     C_R   0.325266 0.269517 0.222818 -0.078493
C128  C     C_R   0.675132 0.729991 0.777068 -0.067661
C129  C     C_R   0.175131 0.770007 0.777069 -0.067647
C130  C     C_R   0.825267 0.230484 0.222817 -0.078490
C131  C     C_R   0.825267 0.769516 0.222817 -0.078498
C132  C     C_R   0.175129 0.229994 0.777069 -0.067656
C133  C     C_R   0.700311 0.242502 0.828122 -0.051697
C134  C     C_R   0.300517 0.758615 0.171419 -0.042971
C135  C     C_R   0.300514 0.241389 0.171421 -0.042977
C136  C     C_R   0.700313 0.757493 0.828120 -0.051685
C137  C     C_R   0.200311 0.742502 0.828122 -0.051685
C138  C     C_R   0.800517 0.258616 0.171418 -0.042968
C139  C     C_R   0.800519 0.741384 0.171418 -0.042971
C140  C     C_R   0.200307 0.257502 0.828125 -0.051705
C141  C     C_R   0.685400 0.272979 0.914228 0.029337
C142  C     C_R   0.315624 0.728493 0.085064 0.035220
C143  C     C_R   0.315619 0.271515 0.085069 0.035211
C144  C     C_R   0.685403 0.727015 0.914226 0.029339
C145  C     C_R   0.185400 0.772979 0.914228 0.029337
C146  C     C_R   0.815625 0.228494 0.085063 0.035221
C147  C     C_R   0.815626 0.771505 0.085062 0.035222
C148  C     C_R   0.185396 0.227026 0.914232 0.029340
C149  C     C_R   0.618131 0.332019 0.050160 -0.166042
C150  C     C_R   0.382907 0.669319 0.949289 -0.150699
C151  C     C_R   0.382896 0.330697 0.949298 -0.150788
C152  C     C_R   0.618136 0.667973 0.050156 -0.166047
C153  C     C_R   0.118131 0.832019 0.050160 -0.166045
C154  C     C_R   0.882907 0.169320 0.949289 -0.150695
C155  C     C_R   0.882907 0.830682 0.949289 -0.150695
C156  C     C_R   0.118129 0.167981 0.050161 -0.166049
C157  C     C_R   0.649968 0.322187 0.091889 -0.208328
C158  C     C_R   0.351188 0.679335 0.907417 -0.185208
C159  C     C_R   0.351175 0.320688 0.907430 -0.185275
C160  C     C_R   0.649973 0.677805 0.091885 -0.208316
C161  C     C_R   0.149968 0.822187 0.091889 -0.208315
C162  C     C_R   0.851189 0.179335 0.907416 -0.185196
C163  C     C_R   0.851189 0.820664 0.907416 -0.185193
C164  C     C_R   0.149965 0.177815 0.091892 -0.208312
C165  C     C_R   0.739183 0.185512 0.798401 0.313057
C166  C     C_R   0.261809 0.815784 0.201112 0.311930
C167  C     C_R   0.261807 0.184220 0.201114 0.311937
C168  C     C_R   0.739186 0.814481 0.798397 0.313067
C169  C     C_R   0.239183 0.685512 0.798401 0.313055
C170  C     C_R   0.761810 0.315785 0.201112 0.311919
C171  C     C_R   0.761811 0.684215 0.201112 0.311933
C172  C     C_R   0.239177 0.314493 0.798404 0.313075
C173  C     C_R   0.773186 0.177493 0.837620 -0.236996
C174  C     C_R   0.228008 0.824234 0.161553 -0.275605
C175  C     C_R   0.228006 0.175772 0.161556 -0.275600
C176  C     C_R   0.773188 0.822501 0.837616 -0.236995
C177  C     C_R   0.273186 0.677493 0.837620 -0.237004
C178  C     C_R   0.728009 0.324234 0.161552 -0.275631
C179  C     C_R   0.728012 0.675764 0.161552 -0.275599
C180  C     C_R   0.273174 0.322522 0.837631 -0.236832
H21   H     H_    0.577141 0.350382 0.094063 0.180711
H22   H     H_    0.423849 0.650644 0.905619 0.201624
H23   H     H_    0.423838 0.349372 0.905623 0.201581
H24   H     H_    0.577146 0.649610 0.094061 0.180720
H25   H     H_    0.077141 0.850382 0.094063 0.180716
H26   H     H_    0.923849 0.150644 0.905619 0.201625
H27   H     H_    0.923848 0.849360 0.905619 0.201628
H28   H     H_    0.077140 0.149615 0.094064 0.180718
H29   H     H_    0.632214 0.337055 0.162787 0.163319
H30   H     H_    0.368886 0.663971 0.836814 0.209773
H31   H     H_    0.368869 0.336063 0.836832 0.209785
H32   H     H_    0.632219 0.662936 0.162783 0.163334
H33   H     H_    0.132213 0.837054 0.162788 0.163334
H34   H     H_    0.868887 0.163971 0.836813 0.209776
H35   H     H_    0.868887 0.836029 0.836813 0.209776
H36   H     H_    0.132211 0.162945 0.162790 0.163335
H37   H     H_    0.802973 0.134586 0.812242 0.209978
H38   H     H_    0.198199 0.867123 0.187032 0.193498
H39   H     H_    0.198197 0.132882 0.187035 0.193493
H40   H     H_    0.802974 0.865410 0.812237 0.209968
H41   H     H_    0.302972 0.634585 0.812243 0.209979
H42   H     H_    0.698199 0.367123 0.187031 0.193498
H43   H     H_    0.698202 0.632877 0.187034 0.193495
H44   H     H_    0.302955 0.365436 0.812259 0.209985
O33   O     O_R   0.062020 0.072840 0.007170 -0.633788
O34   O     O_R   0.937980 0.927160 0.992830 -0.627700
O35   O     O_R   0.937980 0.072840 0.992830 -0.627699
O36   O     O_R   0.062020 0.927160 0.007170 -0.633787
O37   O     O_R   0.562020 0.572840 0.007170 -0.633791
O38   O     O_R   0.437980 0.427160 0.992830 -0.627702
O39   O     O_R   0.437980 0.572840 0.992830 -0.627700
O40   O     O_R   0.562020 0.427160 0.007170 -0.633788
O41   O     O_R   0.947860 0.073950 0.109290 -0.614857
O42   O     O_R   0.052140 0.926050 0.890710 -0.602572
O43   O     O_R   0.052140 0.073950 0.890710 -0.602572
O44   O     O_R   0.947860 0.926050 0.109290 -0.614857
O45   O     O_R   0.447860 0.573950 0.109290 -0.614857
O46   O     O_R   0.552140 0.426050 0.890710 -0.602564
O47   O     O_R   0.552140 0.573950 0.890710 -0.602571
O48   O     O_R   0.447860 0.426050 0.109290 -0.614861
C181  C     C_R   0.072385 0.102496 0.936168 0.908006
C182  C     C_R   0.927787 0.897337 0.063708 0.906322
C183  C     C_R   0.927788 0.102663 0.063707 0.906323
C184  C     C_R   0.072385 0.897504 0.936168 0.908010
C185  C     C_R   0.572386 0.602495 0.936167 0.908008
C186  C     C_R   0.427786 0.397339 0.063709 0.906334
C187  C     C_R   0.427788 0.602663 0.063707 0.906326
C188  C     C_R   0.572385 0.397504 0.936168 0.908018
Zn9   Zn    Zn3+2 0.505960 0.500000 0.080520 0.973186
Zn10  Zn    Zn3+2 0.494040 0.500000 0.919480 1.027448
Zn11  Zn    Zn3+2 0.005960 0.000000 0.080520 0.973194
Zn12  Zn    Zn3+2 0.994040 0.000000 0.919480 1.027459
N1    N     N_R   0.011880 0.236063 0.621851 0.222225
O49   O     O_R   0.025889 0.184278 0.562325 -0.311172
O50   O     O_R   0.012821 0.224893 0.697535 -0.405969
N2    N     N_R   0.919756 0.764411 0.595584 0.224903
O51   O     O_R   0.904202 0.808578 0.663889 -0.362684
O52   O     O_R   0.917039 0.784932 0.523813 -0.358178
N3    N     N_R   0.919756 0.235590 0.595584 0.224899
O53   O     O_R   0.904203 0.191422 0.663888 -0.362692
O54   O     O_R   0.917038 0.215070 0.523814 -0.358187
N4    N     N_R   0.011876 0.763934 0.621861 0.222228
O55   O     O_R   0.025883 0.815724 0.562342 -0.311172
O56   O     O_R   0.012817 0.775097 0.697547 -0.405973
N5    N     N_R   0.511878 0.736060 0.621854 0.222221
O57   O     O_R   0.525886 0.684278 0.562324 -0.311169
O58   O     O_R   0.512827 0.724887 0.697532 -0.405975
N6    N     N_R   0.419687 0.264392 0.595698 0.224983
O59   O     O_R   0.404084 0.308518 0.664053 -0.362954
O60   O     O_R   0.416985 0.284943 0.523922 -0.358088
N7    N     N_R   0.419756 0.735583 0.595586 0.224900
O61   O     O_R   0.404200 0.691411 0.663886 -0.362696
O62   O     O_R   0.417049 0.715065 0.523804 -0.358179
N8    N     N_R   0.511841 0.263965 0.621887 0.222164
O63   O     O_R   0.525613 0.315858 0.562537 -0.310858
O64   O     O_R   0.513104 0.275000 0.697339 -0.406240
N9    N     N_R   0.738872 0.128807 0.739915 0.233281
O65   O     O_R   0.693351 0.109115 0.743481 -0.381441
O66   O     O_R   0.782798 0.091669 0.689955 -0.308061
N10   N     N_R   0.261987 0.872063 0.260210 0.233778
O67   O     O_R   0.218176 0.909569 0.309653 -0.337063
O68   O     O_R   0.307367 0.891123 0.257603 -0.368700
N11   N     N_R   0.261984 0.127941 0.260211 0.233778
O69   O     O_R   0.307366 0.108869 0.257593 -0.368685
O70   O     O_R   0.218168 0.090455 0.309680 -0.337059
N12   N     N_R   0.738873 0.871185 0.739914 0.233260
O71   O     O_R   0.782814 0.908280 0.689890 -0.308033
O72   O     O_R   0.693346 0.890904 0.743519 -0.381439
N13   N     N_R   0.238872 0.628807 0.739914 0.233280
O73   O     O_R   0.193350 0.609114 0.743483 -0.381463
O74   O     O_R   0.282798 0.591669 0.689955 -0.308062
N14   N     N_R   0.761988 0.372065 0.260209 0.233781
O75   O     O_R   0.718180 0.409580 0.309640 -0.337097
O76   O     O_R   0.807368 0.391120 0.257606 -0.368694
N15   N     N_R   0.761988 0.627938 0.260214 0.233775
O77   O     O_R   0.807371 0.608868 0.257594 -0.368694
O78   O     O_R   0.718172 0.590446 0.309675 -0.337056
N16   N     N_R   0.238868 0.371191 0.739909 0.233258
O79   O     O_R   0.282808 0.408286 0.689891 -0.307994
O80   O     O_R   0.193342 0.390909 0.743508 -0.381460

loop_
_geom_bond_atom_site_label_1
_geom_bond_atom_site_label_2
_geom_bond_distance
_ccdc_geom_bond_type
O4    C4    1.251273 A    
C155  H27   1.077679 S    
O5    C5    1.251266 A    
C138  C146  1.414121 A    
O7    Zn7   1.996384 S    
O31   Zn4   2.046761 S    
C119  H15   1.084835 S    
O8    Zn8   1.996384 S    
C136  C168  1.422852 A    
O33   C181  1.213617 A    
C106  C114  1.433835 A    
C44   C68   1.413968 A    
C112  C185  1.458198 S    
C118  H14   1.084833 S    
C46   C66   1.411835 A    
C12   C59   1.468403 S    
C135  C143  1.414117 A    
C133  C141  1.414139 A    
C22   C30   1.416780 A    
C174  H38   1.080019 S    
C2    C126  1.470783 S    
C139  C171  1.422580 A    
C154  C162  1.388810 A    
C6    C130  1.470785 S    
N12   O71   1.301723 A    
C136  C144  1.414133 A    
C19   C33   1.405283 A    
C78   C142  1.429236 A    
C55   C62   1.382599 A    
C27   N6    1.437025 S    
O2    C2    1.252055 A    
C91   C99   1.424296 A    
C140  C148  1.414140 A    
C158  H30   1.078831 S    
O6    Zn6   1.996384 S    
C36   C43   1.409095 A    
C86   C94   1.424294 A    
C101  C141  1.407366 A    
C37   C39   1.409770 A    
C114  C122  1.376676 A    
C71   H7    1.073070 S    
N11   O69   1.301797 A    
C91   C179  1.410902 A    
C105  C145  1.407363 A    
C150  H22   1.077680 S    
C10   C57   1.450845 S    
C53   C61   1.369458 A    
N15   O78   1.301668 A    
C94   C161  1.402587 A    
C152  C160  1.389342 A    
O27   C3    1.302890 A    
N8    O63   1.301111 A    
C101  C109  1.434723 A    
C4    C128  1.470105 S    
C156  C164  1.389343 A    
C7    C131  1.470785 S    
C38   C42   1.408903 A    
C8    C132  1.470110 S    
C20   C73   1.407382 A    
C107  C147  1.407214 A    
C57   C63   1.369469 A    
C48   C65   1.408235 A    
N2    O51   1.300221 A    
O30   Zn1   2.046762 S    
C23   C31   1.416787 A    
C160  H32   1.080696 S    
C87   C175  1.410907 A    
O24   Zn8   2.021489 S    
O17   Zn1   2.021509 S    
C78   C86   1.408758 A    
C3    C127  1.470782 S    
C164  H36   1.080697 S    
C123  H19   1.084834 S    
C129  C137  1.442889 A    
C124  H20   1.084949 S    
C170  N14   1.440825 S    
C165  N9    1.440730 S    
C52   C67   1.408238 A    
O23   Zn7   2.021489 S    
C156  H28   1.077466 S    
O9    C9    1.261323 A    
O48   Zn9   2.000680 S    
C135  C167  1.422587 A    
C149  C157  1.389344 A    
C133  C165  1.422859 A    
C102  C150  1.414007 A    
O13   C13   1.261347 A    
O36   C184  1.213617 A    
C90   C98   1.424295 A    
O44   C182  1.266690 A    
C18   C75   1.405105 A    
C107  C115  1.433841 A    
C108  C116  1.434728 A    
C47   C69   1.414515 A    
N15   O77   1.301816 A    
C77   C85   1.409060 A    
C54   C62   1.382589 A    
O12   C12   1.261354 A    
O33   Zn11  1.983287 S    
O7    C7    1.252063 A    
C63   H3    1.085934 S    
O9    Zn6   2.112523 S    
O8    C8    1.251278 A    
O42   Zn12  2.000661 S    
C33   C43   1.409096 A    
C95   C164  1.402586 A    
C50   C76   1.414583 A    
C108  C156  1.414679 A    
O16   Zn3   2.112510 S    
C172  N16   1.440703 S    
C109  C117  1.376358 A    
C122  H18   1.084835 S    
C18   C36   1.405288 A    
O22   Zn6   2.021509 S    
C47   C66   1.411833 A    
O30   C6    1.302881 A    
C34   C36   1.409779 A    
C22   C40   1.405290 A    
O35   Zn12  1.983274 S    
O43   Zn12  2.000679 S    
O18   C10   1.297857 A    
C38   C40   1.409770 A    
C116  C181  1.458196 S    
O45   Zn9   2.000660 S    
C92   C180  1.410622 A    
C52   C74   1.418920 A    
O2    Zn2   1.996384 S    
C19   C27   1.416742 A    
C45   C53   1.438995 A    
N5    O58   1.301188 A    
C47   C55   1.428416 A    
C30   N3    1.437036 S    
O6    C6    1.252056 A    
C97   C158  1.402658 A    
C77   C141  1.429547 A    
O34   C182  1.214352 A    
C83   C91   1.408759 A    
C111  C186  1.458291 S    
N13   O74   1.301684 A    
C113  C184  1.458192 S    
C179  H43   1.080014 S    
C157  H29   1.080696 S    
C114  C183  1.458286 S    
C180  H44   1.079868 S    
C103  C143  1.407213 A    
C117  H13   1.084952 S    
O20   C12   1.292945 A    
N6    O60   1.301321 A    
O21   C13   1.292911 A    
C161  H33   1.080696 S    
C176  H40   1.079871 S    
C107  C155  1.414008 A    
C5    C129  1.470105 S    
C177  H41   1.079868 S    
O24   C16   1.292912 A    
N14   O75   1.301654 A    
C105  C113  1.434728 A    
C132  C140  1.442892 A    
C103  C111  1.433840 A    
N11   O70   1.301631 A    
N10   O68   1.301793 A    
C51   C68   1.411880 A    
O37   Zn9   1.983287 S    
N1    O49   1.301014 A    
O40   Zn9   1.983277 S    
C108  C148  1.407366 A    
O3    C3    1.252060 A    
C153  H25   1.077470 S    
C20   C28   1.415575 A    
C17   C76   1.407410 A    
C166  N10   1.440822 S    
C19   C74   1.405103 A    
N16   O80   1.301819 A    
N7    O62   1.301319 A    
C112  C120  1.376356 A    
C111  C119  1.376674 A    
C83   C147  1.429236 A    
C116  C124  1.376360 A    
C24   C38   1.407810 A    
C126  C134  1.442491 A    
C34   C44   1.408913 A    
C39   C42   1.408893 A    
O34   Zn12  1.983287 S    
C137  C169  1.422858 A    
C106  C154  1.414007 A    
C151  C159  1.388801 A    
C166  C174  1.406163 A    
C17   C35   1.407841 A    
O23   C15   1.297865 A    
C22   C71   1.405095 A    
C92   C100  1.424476 A    
N4    O56   1.301182 A    
C169  N13   1.440729 S    
C21   C39   1.407815 A    
C98   C157  1.402588 A    
C115  C123  1.376675 A    
O43   C181  1.267262 A    
O48   C186  1.266693 A    
O12   Zn7   2.112510 S    
C79   C87   1.408759 A    
O11   Zn8   2.112510 S    
O13   Zn2   2.112523 S    
C69   H5    1.075129 S    
N12   O72   1.301830 A    
C51   C59   1.428451 A    
C73   H9    1.075124 S    
O25   C1    1.303351 A    
C75   H11   1.073074 S    
C48   C56   1.438991 A    
O10   C10   1.242183 A    
C33   C35   1.409780 A    
C137  C145  1.414139 A    
O14   C14   1.242192 A    
O45   C187  1.266685 A    
O46   C188  1.267261 A    
O47   C185  1.267266 A    
C85   C93   1.424477 A    
C96   C163  1.402658 A    
O38   C186  1.214349 A    
C45   C65   1.408246 A    
C82   C146  1.429235 A    
N8    O64   1.301424 A    
C134  C142  1.414119 A    
C100  C159  1.402652 A    
N9    O66   1.301685 A    
O10   Zn5   2.112523 S    
O44   Zn11  2.000680 S    
C153  C161  1.389341 A    
C49   C75   1.418969 A    
O19   C11   1.297856 A    
C25   C27   1.412846 A    
C15   C56   1.450862 S    
C51   C73   1.414514 A    
O15   C15   1.242197 A    
C79   C143  1.429240 A    
C32   N1    1.435517 S    
C109  C188  1.458193 S    
C110  C187  1.458285 S    
C120  H16   1.084949 S    
N2    O52   1.301317 A    
C59   C64   1.382586 A    
C121  H17   1.084949 S    
C159  H31   1.078817 S    
C56   C61   1.369464 A    
O16   C16   1.261353 A    
C79   C100  1.418767 A    
C102  C142  1.407209 A    
C102  C110  1.433836 A    
O46   Zn10  2.000661 S    
C80   C144  1.429555 A    
C89   C97   1.424474 A    
C106  C146  1.407210 A    
C151  H23   1.077677 S    
C45   C71   1.418959 A    
C11   C60   1.450882 S    
C84   C148  1.429549 A    
O3    Zn3   1.996384 S    
O27   Zn8   2.046761 S    
C93   C162  1.402660 A    
C60   C63   1.369458 A    
C149  H21   1.077467 S    
N3    O53   1.300221 A    
O32   Zn3   2.046761 S    
C82   C90   1.408756 A    
C110  C118  1.376675 A    
O35   C183  1.214354 A    
O47   Zn10  2.000679 S    
C118  C126  1.377699 A    
C21   C72   1.407376 A    
O15   Zn4   2.112510 S    
O25   Zn6   2.046762 S    
O36   Zn11  1.983277 S    
C122  C130  1.377699 A    
O22   C14   1.297867 A    
C41   C65   1.417579 A    
C43   C67   1.417579 A    
C86   C174  1.410908 A    
C64   H4    1.083940 S    
C130  C138  1.442489 A    
O5    Zn5   1.996384 S    
C90   C178  1.410908 A    
C82   C93   1.418766 A    
C72   H8    1.075077 S    
C17   C25   1.415708 A    
O38   Zn10  1.983287 S    
C76   H12   1.075116 S    
O39   C187  1.214355 A    
C80   C88   1.409065 A    
C81   C89   1.409061 A    
C165  C173  1.405865 A    
C134  C166  1.422586 A    
C84   C92   1.409060 A    
C101  C149  1.414678 A    
C31   N2    1.437032 S    
C48   C70   1.418970 A    
C35   C44   1.408945 A    
O41   Zn11  2.000660 S    
O28   C4    1.303358 A    
C175  H39   1.080022 S    
N5    O57   1.301014 A    
O29   C5    1.303351 A    
C88   C176  1.410626 A    
C80   C99   1.418990 A    
C99   C160  1.402589 A    
C1    C125  1.470105 S    
C81   C94   1.418993 A    
C113  C121  1.376358 A    
C26   C28   1.412793 A    
N7    O61   1.300226 A    
C16   C55   1.468332 S    
C104  C152  1.414676 A    
N13   O73   1.301804 A    
C50   C68   1.411852 A    
C88   C96   1.424478 A    
O1    C1    1.251266 A    
C87   C95   1.424299 A    
O4    Zn4   1.996384 S    
O18   Zn2   2.021509 S    
C42   C66   1.413927 A    
C171  C179  1.406155 A    
C131  C139  1.442488 A    
C123  C131  1.377701 A    
C124  C132  1.377229 A    
O14   Zn1   2.112523 S    
C81   C145  1.429548 A    
C46   C72   1.414493 A    
C121  C129  1.377229 A    
C29   C31   1.412791 A    
C46   C54   1.428417 A    
C23   C70   1.405101 A    
O26   C2    1.302882 A    
O11   C11   1.242222 A    
C37   C41   1.409110 A    
O39   Zn10  1.983274 S    
O32   C8    1.303358 A    
C13   C54   1.468347 S    
O28   Zn7   2.046761 S    
C18   C26   1.416778 A    
O29   Zn2   2.046762 S    
C61   H1    1.085930 S    
C29   N4    1.435517 S    
O41   C183  1.266686 A    
C28   N5    1.435519 S    
O42   C184  1.267260 A    
C25   N8    1.435658 S    
C173  H37   1.079867 S    
C49   C57   1.438997 A    
C163  H35   1.078832 S    
C78   C97   1.418767 A    
C139  C147  1.414119 A    
O37   C185  1.213613 A    
C162  H34   1.078831 S    
C154  H26   1.077679 S    
N3    O54   1.301313 A    
C128  C136  1.442889 A    
C171  N15   1.440816 S    
N16   O79   1.301712 A    
C170  C178  1.406166 A    
C85   C173  1.410624 A    
C104  C144  1.407366 A    
O26   Zn5   2.046762 S    
C167  N11   1.440817 S    
N6    O59   1.300221 A    
C52   C60   1.438970 A    
C23   C37   1.405281 A    
C21   C29   1.415560 A    
N4    O55   1.301011 A    
C89   C177  1.410624 A    
C24   C69   1.407377 A    
C127  C135  1.442493 A    
C125  C133  1.442893 A    
C40   C41   1.409097 A    
C155  C163  1.388811 A    
C26   N7    1.437031 S    
C138  C170  1.422587 A    
O40   C188  1.213618 A    
C167  C175  1.406157 A    
C49   C67   1.408227 A    
C105  C153  1.414678 A    
C150  C158  1.388811 A    
C119  C127  1.377701 A    
O20   Zn4   2.021489 S    
N10   O67   1.301656 A    
C103  C151  1.414003 A    
C117  C125  1.377227 A    
C77   C98   1.418994 A    
N1    O50   1.301187 A    
O21   Zn5   2.021509 S    
C14   C53   1.450879 S    
O1    Zn1   1.996384 S    
C120  C128  1.377227 A    
C58   C64   1.382605 A    
C20   C34   1.407818 A    
O31   C7    1.302888 A    
C62   H2    1.083936 S    
C24   C32   1.415568 A    
N9    O65   1.301803 A    
O17   C9    1.292953 A    
C168  C176  1.405854 A    
C84   C95   1.418993 A    
C178  H42   1.080018 S    
C115  C182  1.458291 S    
C70   H6    1.073071 S    
O19   Zn3   2.021489 S    
N14   O76   1.301804 A    
C140  C172  1.422852 A    
C104  C112  1.434732 A    
C83   C96   1.418766 A    
C172  C180  1.405855 A    
C9    C58   1.468379 S    
C30   C32   1.412791 A    
C74   H10   1.073082 S    
C152  H24   1.077466 S    
C169  C177  1.405866 A    
C50   C58   1.428495 A    
C168  N12   1.440697 S    
