data_mof_unit_2039.cif
_audit_creation_date              2013-03-05T15:48:50-0500
_audit_creation_method            fapswitch 2.2
_symmetry_space_group_name_H-M    P1
_symmetry_Int_Tables_number       1
_space_group_crystal_system       triclinic
_cell_length_a                    17.692864
_cell_length_b                    24.438203
_cell_length_c                    14.978499
_cell_angle_alpha                 89.961735
_cell_angle_beta                  126.054169
_cell_angle_gamma                 89.96598
_cell_volume                      5235.93583314

loop_
_atom_site_label
_atom_site_type_symbol
_atom_site_description
_atom_site_fract_x
_atom_site_fract_y
_atom_site_fract_z
_atom_type_partial_charge
C1    C     C_R   0.904093 0.874872 0.092535 -0.033745
C2    C     C_R   0.902466 0.121923 0.093053 -0.041604
C3    C     C_R   0.403950 0.374975 0.092469 -0.034751
C4    C     C_R   0.403085 0.622906 0.093099 -0.042594
H1    H     H_    0.933438 0.867478 0.178143 0.092809
H2    H     H_    0.932602 0.130178 0.178491 0.096431
H3    H     H_    0.433176 0.367687 0.178083 0.092158
H4    H     H_    0.433614 0.631563 0.178481 0.096712
N1    N     N_R   0.950530 0.896220 0.057200 -0.054584
N2    N     N_R   0.950530 0.103780 0.057200 -0.048895
N3    N     N_R   0.450530 0.396220 0.057200 -0.054943
N4    N     N_R   0.450530 0.603780 0.057200 -0.050427
C5    C     C_R   0.810371 0.123284 0.907900 -0.007737
C6    C     C_R   0.812401 0.873682 0.906788 -0.022452
C7    C     C_R   0.310725 0.623918 0.907819 -0.008292
C8    C     C_R   0.312359 0.373723 0.906740 -0.023462
H5    H     H_    0.754623 0.131070 0.822455 0.094128
H6    H     H_    0.757138 0.866032 0.821121 0.097660
H7    H     H_    0.255046 0.631763 0.822360 0.095930
H8    H     H_    0.257117 0.366074 0.821066 0.096928
N5    N     N_R   0.893330 0.103780 0.942800 -0.037726
N6    N     N_R   0.893330 0.896220 0.942800 -0.041475
N7    N     N_R   0.393330 0.603780 0.942800 -0.038955
N8    N     N_R   0.393330 0.396220 0.942800 -0.041864
C9    C     C_R   0.742783 0.954421 0.697153 -0.111880
C10   C     C_R   0.742651 0.045540 0.696942 -0.101742
C11   C     C_R   0.242758 0.454430 0.697168 -0.110861
C12   C     C_R   0.242595 0.545557 0.697026 -0.107451
H9    H     H_    0.728322 0.912131 0.671740 0.135255
H10   H     H_    0.727951 0.087831 0.671274 0.134336
H11   H     H_    0.228302 0.412146 0.671714 0.134790
H12   H     H_    0.227848 0.587854 0.671429 0.134741
N9    N     N_R   0.818150 0.971400 0.792440 -0.056872
N10   N     N_R   0.818150 0.028600 0.792440 -0.058384
N11   N     N_R   0.318150 0.471400 0.792440 -0.057310
N12   N     N_R   0.318150 0.528600 0.792440 -0.057451
C13   C     C_R   0.047221 0.045167 0.304381 -0.152173
C14   C     C_R   0.047762 0.953933 0.303924 -0.141539
C15   C     C_R   0.546854 0.545395 0.303944 -0.156333
C16   C     C_R   0.547825 0.454157 0.304210 -0.142302
H13   H     H_    0.058658 0.087305 0.330973 0.118789
H14   H     H_    0.061458 0.911676 0.330144 0.104595
H15   H     H_    0.557772 0.587645 0.329584 0.117644
H16   H     H_    0.561372 0.411952 0.330790 0.108283
N13   N     N_R   0.025710 0.028600 0.207560 -0.055340
N14   N     N_R   0.025710 0.971400 0.207560 -0.053498
N15   N     N_R   0.525710 0.528600 0.207560 -0.055025
N16   N     N_R   0.525710 0.471400 0.207560 -0.054626
C17   C     C_R   0.818039 0.858333 0.999489 -0.008152
C18   C     C_R   0.815018 0.137156 0.001065 0.004709
C19   C     C_R   0.317898 0.358405 0.999377 -0.007044
C20   C     C_R   0.315665 0.638146 0.001003 0.007242
C21   C     C_R   0.692283 0.999957 0.636709 0.058368
C22   C     C_R   0.192229 0.499974 0.636787 0.059673
C23   C     C_R   0.062922 0.999215 0.366782 0.087086
C24   C     C_R   0.563120 0.499623 0.366912 0.090314
C25   C     C_R   0.252254 0.954457 0.307181 -0.065298
C26   C     C_R   0.252151 0.045260 0.307433 -0.083149
C27   C     C_R   0.752227 0.454453 0.307187 -0.059941
C28   C     C_R   0.752120 0.545254 0.307456 -0.081798
N17   N     N_R   0.181850 0.971400 0.207560 -0.072215
N18   N     N_R   0.181850 0.028600 0.207560 -0.074110
N19   N     N_R   0.681850 0.471400 0.207560 -0.071574
N20   N     N_R   0.681850 0.528600 0.207560 -0.072923
C29   C     C_R   0.027056 0.045801 0.761743 -0.046560
C30   C     C_R   0.024597 0.954554 0.758007 -0.061790
C31   C     C_R   0.526683 0.546027 0.761521 -0.095893
C32   C     C_R   0.524519 0.454802 0.757543 -0.016881
H17   H     H_    0.037458 0.088042 0.752795 0.163217
H18   H     H_    0.035984 0.912253 0.749306 0.118326
H19   H     H_    0.537632 0.588283 0.753844 0.173086
H20   H     H_    0.535177 0.412584 0.747363 0.126592
N21   N     N_R   0.974290 0.028600 0.792440 -0.037359
N22   N     N_R   0.974290 0.971400 0.792440 -0.027553
N23   N     N_R   0.474290 0.528600 0.792440 -0.039946
N24   N     N_R   0.474290 0.471400 0.792440 -0.039142
C33   C     C_R   0.050725 0.846028 0.909363 0.251323
C34   C     C_R   0.047605 0.154789 0.909847 0.289756
C35   C     C_R   0.551455 0.346126 0.909460 0.247306
C36   C     C_R   0.547566 0.654822 0.909912 0.289389
N25   N     N_R   0.049470 0.896220 0.942800 -0.092590
N26   N     N_R   0.049470 0.103780 0.942800 -0.093673
N27   N     N_R   0.549470 0.396220 0.942800 -0.087583
N28   N     N_R   0.549470 0.603780 0.942800 -0.090309
C37   C     C_R   0.142685 0.152959 0.092087 -0.136603
C38   C     C_R   0.145593 0.847553 0.092295 -0.025159
C39   C     C_R   0.642694 0.652953 0.092138 -0.134936
C40   C     C_R   0.646418 0.347739 0.092453 -0.016963
H21   H     H_    0.184282 0.164368 0.177307 0.150339
H22   H     H_    0.192716 0.836570 0.177892 0.120808
H23   H     H_    0.684515 0.664266 0.177405 0.149335
H24   H     H_    0.693161 0.336609 0.178039 0.118922
N29   N     N_R   0.106670 0.103780 0.057200 -0.073976
N30   N     N_R   0.106670 0.896220 0.057200 -0.076570
N31   N     N_R   0.606670 0.603780 0.057200 -0.072585
N32   N     N_R   0.606670 0.396220 0.057200 -0.074790
Ni1   Ni    Ni4+2 0.065600 0.934400 0.131190 0.229707
Ni2   Ni    Ni4+2 0.065600 0.065600 0.131190 0.225913
Ni3   Ni    Ni4+2 0.565600 0.434400 0.131190 0.231856
Ni4   Ni    Ni4+2 0.565600 0.565600 0.131190 0.227113
Ni5   Ni    Ni4+2 0.934400 0.065600 0.868810 0.322694
Ni6   Ni    Ni4+2 0.934400 0.934400 0.868810 0.320961
Ni7   Ni    Ni4+2 0.434400 0.565600 0.868810 0.323668
Ni8   Ni    Ni4+2 0.434400 0.434400 0.868810 0.323555
C41   C     C_R   0.303970 0.999773 0.368456 0.015243
C42   C     C_R   0.803928 0.499767 0.368488 0.010015
C43   C     C_R   0.056113 0.000486 0.733753 0.003622
C44   C     C_R   0.556221 0.500973 0.733769 0.091390
C45   C     C_R   0.116875 0.815798 0.002430 -0.012604
C46   C     C_R   0.110903 0.186160 0.002746 -0.056875
C47   C     C_R   0.618233 0.316093 0.002655 -0.019252
C48   C     C_R   0.610885 0.686204 0.002860 -0.059109
C49   C     C_3   0.971130 0.012560 0.434688 -0.390260
C50   C     C_3   0.102042 0.942486 0.528532 -0.368165
C51   C     C_3   0.469882 0.509284 0.433881 -0.368029
C52   C     C_3   0.608157 0.444543 0.533068 -0.519910
H25   H     H_    0.952205 0.055210 0.402927 0.210870
H26   H     H_    0.168360 0.929654 0.542074 0.221074
H27   H     H_    0.445585 0.550880 0.397949 0.215395
H28   H     H_    0.675732 0.433886 0.547465 0.184156
H29   H     H_    0.918281 0.985711 0.365183 0.221399
H30   H     H_    0.048997 0.910971 0.473961 0.167922
H31   H     H_    0.420410 0.480190 0.367042 0.215939
H32   H     H_    0.558340 0.411090 0.481774 0.196984
C53   C     C_3   0.965761 0.003667 0.531232 -0.252565
C54   C     C_3   0.109805 0.945039 0.637235 -0.316247
C55   C     C_3   0.465898 0.500319 0.531516 -0.283560
C56   C     C_3   0.617039 0.448011 0.642290 -0.288092
H33   H     H_    0.934690 0.962171 0.519183 0.202406
H34   H     H_    0.065708 0.910605 0.630059 0.128808
H35   H     H_    0.440151 0.457591 0.523294 0.200934
H36   H     H_    0.579558 0.411422 0.641499 0.151694
H37   H     H_    0.136789 0.081202 0.514011 0.209922
H38   H     H_    0.213334 0.026108 0.584227 0.208915
H39   H     H_    0.628977 0.584291 0.508284 0.215145
H40   H     H_    0.710368 0.531871 0.583112 0.188374
C57   C     C_3   0.142766 0.041568 0.553740 -0.463932
C58   C     C_3   0.638163 0.545007 0.550511 -0.486911
C59   C     C_3   0.070525 0.998977 0.469816 0.192175
C60   C     C_3   0.570620 0.499692 0.469886 0.246146
C61   C     C_3   0.068184 0.001516 0.643024 -0.067357
C62   C     C_3   0.568308 0.502550 0.643068 -0.046867
C63   C     C_3   0.133780 0.050099 0.651022 0.524301
C64   C     C_3   0.627301 0.553962 0.646061 0.501444
C65   C     C_3   0.684289 0.202848 0.885411 -0.463405
C66   C     C_3   0.687756 0.792873 0.883019 -0.378142
C67   C     C_3   0.183069 0.702698 0.884901 -0.463514
C68   C     C_3   0.187944 0.292679 0.882825 -0.375984
H41   H     H_    0.716431 0.222636 0.848458 0.222598
H42   H     H_    0.720070 0.777373 0.843312 0.249329
H43   H     H_    0.213962 0.722551 0.846547 0.227497
H44   H     H_    0.220552 0.277282 0.843396 0.249395
H45   H     H_    0.640138 0.168979 0.828808 0.167855
H46   H     H_    0.639421 0.825818 0.827012 0.149766
H47   H     H_    0.139405 0.668401 0.829388 0.165835
H48   H     H_    0.139414 0.325491 0.826557 0.146748
C69   C     C_3   0.120059 0.743282 0.887994 -0.377464
C70   C     C_3   0.131864 0.246975 0.885572 -0.411736
C71   C     C_3   0.621529 0.243719 0.888219 -0.396196
C72   C     C_3   0.631466 0.747339 0.885783 -0.407936
H49   H     H_    0.556925 0.221864 0.863572 0.249311
H50   H     H_    0.558333 0.761887 0.835618 0.244492
H51   H     H_    0.056066 0.721090 0.864590 0.243666
H52   H     H_    0.058539 0.261218 0.834779 0.241033
H53   H     H_    0.096402 0.773676 0.821476 0.190639
H54   H     H_    0.133303 0.211106 0.841561 0.209873
H55   H     H_    0.598940 0.274394 0.822433 0.174489
H56   H     H_    0.632258 0.711559 0.841178 0.210366
C73   C     C_3   0.329292 0.732654 0.069537 0.116189
C74   C     C_3   0.329287 0.266937 0.074544 0.120211
C75   C     C_3   0.830148 0.231435 0.071844 0.128568
C76   C     C_3   0.829364 0.766794 0.074300 0.120063
C77   C     C_3   0.711516 0.164530 0.061822 -0.310563
C78   C     C_3   0.706770 0.837412 0.049433 -0.268182
C79   C     C_3   0.213063 0.664999 0.063161 -0.306922
C80   C     C_3   0.206100 0.337453 0.048536 -0.255611
C81   C     C_3   0.760743 0.182267 0.004839 0.004639
C82   C     C_3   0.760861 0.815049 0.001625 -0.017244
C83   C     C_3   0.260797 0.682920 0.004476 0.002517
C84   C     C_3   0.260687 0.315069 0.001392 -0.018618
C85   C     C_3   0.171400 0.768092 0.007087 -0.026013
C86   C     C_3   0.166865 0.233436 0.007016 -0.021708
C87   C     C_3   0.672327 0.268004 0.007592 -0.032646
C88   C     C_3   0.666931 0.733491 0.007262 -0.023688
C89   C     C_3   0.274910 0.787157 0.049480 -0.037224
C90   C     C_3   0.275707 0.216555 0.075828 -0.018381
C91   C     C_3   0.776677 0.286277 0.051930 -0.033448
C92   C     C_3   0.775656 0.716428 0.075387 -0.019522
C93   C     C_3   0.171941 0.719533 0.078335 -0.272583
C94   C     C_3   0.147419 0.288035 0.047591 -0.290742
C95   C     C_3   0.671124 0.219329 0.077422 -0.262765
C96   C     C_3   0.648134 0.788021 0.048701 -0.287349
H57   H     H_    0.596049 0.212951 0.042116 0.256190
H58   H     H_    0.572562 0.796540 0.984191 0.218440
H59   H     H_    0.097148 0.712627 0.043811 0.256711
H60   H     H_    0.071909 0.296417 0.982525 0.216066
H61   H     H_    0.365951 0.721157 0.157054 0.106270
H62   H     H_    0.373969 0.282897 0.159861 0.110014
H63   H     H_    0.865546 0.219602 0.158971 0.102549
H64   H     H_    0.874256 0.782614 0.159706 0.111011
C97   C     C_3   0.446493 0.948544 0.412756 -0.324658
C98   C     C_3   0.446192 0.050936 0.412579 -0.316628
C99   C     C_3   0.946467 0.448551 0.412802 -0.325143
C100  C     C_3   0.946150 0.550939 0.412640 -0.316021
H65   H     H_    0.423476 0.909841 0.428377 0.216524
H66   H     H_    0.423002 0.089557 0.428242 0.226595
H67   H     H_    0.923439 0.409842 0.428388 0.216823
H68   H     H_    0.922933 0.589560 0.428267 0.226421
H69   H     H_    0.419854 0.948458 0.324413 0.218783
H70   H     H_    0.419472 0.051015 0.324200 0.212975
H71   H     H_    0.919852 0.448486 0.324471 0.219529
H72   H     H_    0.919458 0.551004 0.324272 0.213828
C101  C     C_3   0.553418 0.948519 0.485816 -0.358998
C102  C     C_3   0.553069 0.051097 0.485440 -0.361334
C103  C     C_3   0.053390 0.448530 0.485884 -0.358574
C104  C     C_3   0.053024 0.551110 0.485526 -0.363138
H73   H     H_    0.579321 0.947900 0.433755 0.213901
H74   H     H_    0.578870 0.051681 0.433269 0.215501
H75   H     H_    0.079312 0.447915 0.433843 0.215481
H76   H     H_    0.078844 0.551706 0.433375 0.215102
H77   H     H_    0.577620 0.910341 0.535683 0.171816
H78   H     H_    0.577083 0.089323 0.534975 0.169725
H79   H     H_    0.077584 0.410351 0.535748 0.171150
H80   H     H_    0.077016 0.589333 0.535067 0.170347
H81   H     H_    0.421657 0.963003 0.579739 0.220208
H82   H     H_    0.421138 0.036064 0.579645 0.218172
H83   H     H_    0.921596 0.462984 0.579759 0.211381
H84   H     H_    0.921068 0.536048 0.579682 0.216635
H85   H     H_    0.579398 0.963225 0.687383 0.171165
H86   H     H_    0.578869 0.036598 0.686804 0.170079
H87   H     H_    0.079341 0.463216 0.687433 0.168329
H88   H     H_    0.078799 0.536589 0.686870 0.169639
C105  C     C_3   0.446320 0.999645 0.559940 -0.310767
C106  C     C_3   0.946261 0.499634 0.559981 -0.328176
C107  C     C_3   0.408160 0.999712 0.437214 0.264534
C108  C     C_3   0.908117 0.499710 0.437260 0.275512
C109  C     C_3   0.590107 0.999857 0.560499 0.278631
C110  C     C_3   0.090060 0.499866 0.560573 0.281447
C111  C     C_3   0.553094 0.999842 0.632509 -0.422202
C112  C     C_3   0.053036 0.499836 0.632568 -0.420700
C113  C     C_2   0.894885 0.042313 0.523631 0.625502
H89   H     H_    0.905001 0.086061 0.530913 0.109265
O1    O     O_2   0.824103 0.024169 0.509095 -0.547351
C114  C     C_2   0.206365 0.932135 0.740612 0.698055
H90   H     H_    0.215504 0.927511 0.818442 0.047407
O2    O     O_2   0.274312 0.926901 0.739223 -0.505113
C115  C     C_2   0.390882 0.535950 0.521607 0.624203
H91   H     H_    0.396791 0.579942 0.527934 0.112691
O3    O     O_2   0.321689 0.514972 0.506799 -0.548534
C116  C     C_2   0.717130 0.441223 0.742145 0.673593
H92   H     H_    0.774721 0.446882 0.735903 0.051071
O4    O     O_2   0.734561 0.431191 0.832274 -0.527423
N33   N     N_R   0.095039 0.105509 0.640532 0.208276
O5    O     O_R   0.140015 0.139237 0.723506 -0.376198
O6    O     O_R   0.032158 0.126410 0.544030 -0.443392
N34   N     N_R   0.228242 0.047858 0.757516 0.243604
O7    O     O_R   0.237050 0.041863 0.849598 -0.378134
O8    O     O_R   0.299732 0.067394 0.763807 -0.286128
N35   N     N_R   0.581062 0.607630 0.628575 0.211232
O9    O     O_R   0.515487 0.624822 0.529653 -0.441922
O10   O     O_R   0.622056 0.644281 0.706451 -0.373704
N36   N     N_R   0.721518 0.556583 0.752838 0.231667
O11   O     O_R   0.790391 0.578940 0.757073 -0.311237
O12   O     O_R   0.730735 0.551670 0.845326 -0.348424
N37   N     N_R   0.403280 0.739101 0.053428 0.262332
O13   O     O_R   0.383786 0.741579 0.955220 -0.352859
O14   O     O_R   0.490370 0.737433 0.138697 -0.375327
N38   N     N_R   0.395563 0.253023 0.048244 0.259496
O15   O     O_R   0.367440 0.236503 0.950656 -0.320160
O16   O     O_R   0.484879 0.257715 0.124443 -0.320247
N39   N     N_R   0.905468 0.237505 0.057862 0.262676
O17   O     O_R   0.887611 0.239740 0.960435 -0.360160
O18   O     O_R   0.992084 0.235961 0.144342 -0.374192
N40   N     N_R   0.895427 0.752900 0.047649 0.258934
O19   O     O_R   0.867034 0.736624 0.949827 -0.320885
O20   O     O_R   0.984819 0.757276 0.123799 -0.320157
C117  C     C_2   0.269997 0.823099 0.961737 0.953115
H93   H     H_    0.204464 0.833259 0.884388 -0.305716
O21   O     O_2   0.340452 0.844568 0.980689 -0.462203
C118  C     C_2   0.285666 0.165869 0.021959 0.769717
H94   H     H_    0.225227 0.145289 0.952468 -0.009439
O22   O     O_2   0.362213 0.145514 0.060303 -0.424723
C119  C     C_2   0.773976 0.322101 0.965702 0.814863
H95   H     H_    0.709230 0.332549 0.887752 -0.080429
O23   O     O_2   0.845487 0.342917 0.986450 -0.424787
C120  C     C_2   0.785042 0.665918 0.020678 0.771598
H96   H     H_    0.724391 0.645764 0.950646 -0.008490
O24   O     O_2   0.861361 0.645316 0.058698 -0.422704
C121  C     C_2   0.779531 0.134377 0.171962 0.517761
H97   H     H_    0.840188 0.155070 0.241149 0.007475
O25   O     O_2   0.768081 0.086502 0.185160 -0.526556
C122  C     C_2   0.775209 0.861715 0.165355 0.526596
H98   H     H_    0.821995 0.835683 0.235231 0.069603
O26   O     O_2   0.779164 0.910933 0.182371 -0.541533
C123  C     C_2   0.282361 0.635564 0.173801 0.516862
H99   H     H_    0.342831 0.656816 0.242084 0.014952
O27   O     O_2   0.272146 0.587687 0.188426 -0.528711
C124  C     C_2   0.274103 0.361909 0.164393 0.528077
H100  H     H_    0.320907 0.336004 0.234469 0.068529
O28   O     O_2   0.277690 0.411138 0.181134 -0.540136
C125  C     C_2   0.631749 0.124455 0.986785 0.792985
H101  H     H_    0.633009 0.099622 0.927629 -0.047343
O29   O     O_2   0.569644 0.116332 0.998033 -0.469277
C126  C     C_2   0.639636 0.883494 0.975659 0.774378
H102  H     H_    0.647912 0.904705 0.918232 -0.066786
O30   O     O_2   0.579141 0.899568 0.984921 -0.466161
C127  C     C_2   0.134023 0.624237 0.989698 0.790686
H103  H     H_    0.135254 0.599230 0.930713 -0.049812
O31   O     O_2   0.072672 0.615781 0.002113 -0.473551
C128  C     C_2   0.138949 0.383433 0.974312 0.754888
H104  H     H_    0.147472 0.404589 0.917038 -0.066098
O32   O     O_2   0.078136 0.399486 0.983026 -0.483746
C129  C     C_2   0.218060 0.733957 0.198533 0.542810
H105  H     H_    0.291412 0.743804 0.252830 0.066168
O33   O     O_2   0.173539 0.732868 0.237051 -0.474246
C130  C     C_2   0.148240 0.284902 0.149250 0.743687
H106  H     H_    0.172589 0.249487 0.201837 0.052256
O34   O     O_2   0.118983 0.323418 0.172755 -0.457348
C131  C     C_2   0.716934 0.233342 0.197728 0.539391
H107  H     H_    0.790494 0.242550 0.252692 0.064600
O35   O     O_2   0.671927 0.232562 0.235619 -0.475194
C132  C     C_2   0.649797 0.784746 0.150929 0.742723
H108  H     H_    0.674027 0.749206 0.203149 0.050961
O36   O     O_2   0.621345 0.823316 0.175352 -0.460234
N41   N     N_R   0.325263 0.820834 0.152692 0.221813
O37   O     O_R   0.397383 0.801859 0.246050 -0.374547
O38   O     O_R   0.315733 0.873931 0.145393 -0.406947
N42   N     N_R   0.318348 0.202250 0.193426 0.225877
O39   O     O_R   0.352032 0.153517 0.231903 -0.394372
O40   O     O_R   0.331612 0.238974 0.264041 -0.460584
N43   N     N_R   0.826793 0.319598 0.155579 0.227029
O41   O     O_R   0.898360 0.300232 0.248933 -0.374140
O42   O     O_R   0.818003 0.372737 0.148899 -0.390351
N44   N     N_R   0.818619 0.701806 0.192929 0.226419
O43   O     O_R   0.851783 0.652909 0.230670 -0.393275
O44   O     O_R   0.832688 0.738381 0.264183 -0.459919
C133  C     C_2   0.244515 0.903991 0.355730 0.495364
H109  H     H_    0.186351 0.876480 0.304779 0.032258
O45   O     O_2   0.299223 0.894019 0.454100 -0.576249
C134  C     C_2   0.243892 0.095277 0.356579 0.542788
H110  H     H_    0.184741 0.122321 0.306374 0.016069
O46   O     O_2   0.299327 0.105321 0.454753 -0.577591
C135  C     C_2   0.744449 0.403980 0.355684 0.488791
H111  H     H_    0.686275 0.376478 0.304689 0.034258
O47   O     O_2   0.799142 0.393988 0.454048 -0.592384
C136  C     C_2   0.743829 0.595264 0.356596 0.541879
H112  H     H_    0.684693 0.622315 0.306371 0.014870
O48   O     O_2   0.799226 0.605296 0.454781 -0.578608
N45   N     N_R   0.966698 0.822815 0.814541 0.222609
O49   O     O_R   0.913965 0.851953 0.725518 -0.416102
O50   O     O_R   0.930774 0.779435 0.826288 -0.330844
N46   N     N_R   0.963985 0.176504 0.811632 0.231255
O51   O     O_R   0.929167 0.222511 0.815703 -0.347031
O52   O     O_R   0.911266 0.145169 0.726189 -0.421201
N47   N     N_R   0.467722 0.322583 0.814834 0.222334
O53   O     O_R   0.415058 0.351391 0.725317 -0.418443
O54   O     O_R   0.431711 0.279467 0.827272 -0.330232
N48   N     N_R   0.463959 0.676498 0.811590 0.232616
O55   O     O_R   0.429295 0.722612 0.815442 -0.336173
O56   O     O_R   0.410887 0.644984 0.726609 -0.417409

loop_
_geom_bond_atom_site_label_1
_geom_bond_atom_site_label_2
_geom_bond_distance
_ccdc_geom_bond_type
C132  O36   1.221607 D    
H37   C57   1.108368 S    
C39   H23   1.069307 S    
C93   C129  1.517696 S    
C133  H109  1.081892 S    
C48   C88   1.499201 S    
C125  H101  1.085298 S    
N4    N7    1.385335 A    
C90   N42   1.492883 S    
H82   C105  1.110137 S    
C99   C103  1.529543 S    
C8    H8    1.077569 S    
C9    C21   1.379009 A    
C24   C60   1.468225 S    
C116  O4    1.219471 D    
N39   O17   1.299830 A    
N32   Ni3   1.890858 S    
C23   C59   1.468159 S    
C114  H90   1.084370 S    
N40   O19   1.300782 A    
N16   Ni3   1.890813 S    
C102  H78   1.110851 S    
C89   N41   1.497462 S    
C66   H42   1.106518 S    
N7    Ni7   1.890858 S    
C14   C23   1.373843 A    
C100  H68   1.107862 S    
C79   C127  1.533168 S    
C71   H49   1.110122 S    
C4    N4    1.320386 A    
C67   H47   1.111879 S    
N21   Ni5   1.890811 S    
N23   Ni7   1.890811 S    
C41   C107  1.491345 S    
C92   N44   1.492898 S    
C106  C108  1.540806 S    
C44   C62   1.494946 S    
N2    N5    1.385335 A    
C9    H9    1.079183 S    
C110  C112  1.556770 S    
C27   C42   1.385651 A    
C51   H31   1.115424 S    
C11   H11   1.079181 S    
N9    Ni6   1.893010 S    
C12   H12   1.079342 S    
C134  H110  1.081521 S    
C22   C110  1.463492 S    
N11   Ni8   1.893010 S    
C38   H22   1.073305 S    
C12   C22   1.380283 A    
C56   C62   1.590740 S    
C39   C48   1.370183 A    
N30   Ni1   1.890858 S    
C11   N11   1.322320 A    
C77   C95   1.598305 S    
C89   C117  1.539546 S    
C130  H106  1.074365 S    
N23   N24   1.397865 A    
C104  H80   1.110846 S    
C34   N26   1.333656 A    
N47   O53   1.299629 A    
C66   H46   1.112263 S    
C32   H20   1.075690 S    
N46   O51   1.300318 A    
C100  H72   1.113193 S    
C5    N5    1.323060 A    
C98   C102  1.528931 S    
C94   C130  1.516085 S    
C58   C60   1.554839 S    
N42   O40   1.299443 A    
N38   O16   1.300152 A    
C54   C114  1.516790 S    
C62   C64   1.617579 S    
C124  H100  1.078693 S    
C21   C109  1.463580 S    
C15   N15   1.325853 A    
C16   N16   1.326143 A    
C33   C45   1.391387 A    
C101  H73   1.113108 S    
C38   C45   1.367140 A    
N35   O10   1.302019 A    
C96   C132  1.516153 S    
N36   O12   1.301532 A    
C25   N17   1.326774 A    
C54   C61   1.590231 S    
C27   N19   1.326718 A    
C28   N20   1.327377 A    
C104  C110  1.546411 S    
C122  O26   1.223155 D    
C105  C111  1.527512 S    
C99   C108  1.565212 S    
C100  C108  1.564811 S    
C120  O24   1.222613 D    
C30   H18   1.075672 S    
C71   H55   1.108049 S    
C72   H56   1.105875 S    
C55   H35   1.117021 S    
C3    N3    1.319259 A    
C67   C83   1.559320 S    
C74   C84   1.577485 S    
C86   C94   1.585797 S    
C113  O1    1.221532 D    
C96   H58   1.115098 S    
C131  O35   1.220064 D    
N45   O49   1.299661 A    
C26   C134  1.478162 S    
C8    C19   1.383584 A    
C30   C43   1.393416 A    
C123  O27   1.223164 D    
C42   C108  1.491327 S    
N28   Ni7   1.895124 S    
N33   O5    1.302008 A    
C65   C71   1.511972 S    
C95   C131  1.517680 S    
C129  O33   1.220233 D    
C66   C72   1.510504 S    
C30   N22   1.329639 A    
C66   C82   1.555668 S    
N3    Ni3   1.895126 S    
C113  H89   1.079051 S    
N41   O38   1.304592 A    
N19   Ni3   1.894904 S    
C2    C18   1.385701 A    
C40   C47   1.366837 A    
C37   N29   1.316574 A    
C53   C61   1.586970 S    
N34   O8    1.302746 A    
C49   C59   1.545830 S    
C77   C81   1.596841 S    
H85   C111  1.114063 S    
C126  O30   1.222090 D    
C117  H93   1.079977 S    
C99   H71   1.113061 S    
H86   C111  1.114056 S    
C101  H77   1.110802 S    
C97   H69   1.113092 S    
C90   C118  1.544289 S    
C118  H94   1.082138 S    
C102  H74   1.113150 S    
C69   H53   1.107859 S    
N44   O43   1.303694 A    
C52   H28   1.113493 S    
H87   C112  1.114065 S    
N28   N31   1.385335 A    
C72   H50   1.104485 S    
C67   H43   1.110745 S    
C53   H33   1.116814 S    
N43   O42   1.304571 A    
C136  O48   1.219693 D    
C80   C124  1.536493 S    
C47   C87   1.489233 S    
C121  H97   1.083350 S    
C15   C24   1.379247 A    
C106  C112  1.527514 S    
N38   O15   1.300803 A    
N48   O56   1.300124 A    
N37   O14   1.300196 A    
C46   C86   1.498734 S    
C49   H25   1.111860 S    
N47   O54   1.300430 A    
C92   C120  1.544034 S    
C10   H10   1.079381 S    
C51   H27   1.110949 S    
C135  O47   1.219746 D    
C31   N23   1.326921 A    
C28   C42   1.386612 A    
C73   H61   1.102944 S    
C45   C85   1.487979 S    
C104  H76   1.113153 S    
C34   N46   1.439007 S    
N42   O39   1.303706 A    
C76   N40   1.479795 S    
N26   Ni5   1.895124 S    
N36   O11   1.302787 A    
C32   N24   1.331974 A    
C100  C104  1.528885 S    
C73   N37   1.472627 S    
C91   C119  1.537092 S    
C5    H5    1.077310 S    
C26   C41   1.386615 A    
C6    N6    1.317859 A    
C117  O21   1.222384 D    
C20   C83   1.483436 S    
C58   C64   1.567585 S    
N25   N30   1.385335 A    
N27   N32   1.385335 A    
C114  O2    1.221188 D    
C76   H64   1.105366 S    
N40   O20   1.300296 A    
C13   H13   1.079792 S    
N17   N18   1.397865 A    
C14   N14   1.324343 A    
N19   N20   1.397865 A    
C13   C23   1.380036 A    
C16   H16   1.080097 S    
C49   H29   1.115562 S    
C63   N33   1.483251 S    
C119  H95   1.079614 S    
C97   H65   1.107922 S    
C75   C81   1.584827 S    
C29   C43   1.385671 A    
N35   O9    1.301200 A    
C9    N9    1.322331 A    
C67   C69   1.512678 S    
C26   N18   1.327372 A    
C40   N32   1.318399 A    
N21   N22   1.397865 A    
N11   N12   1.397865 A    
C36   N28   1.333930 A    
C64   N36   1.484203 S    
H38   C57   1.112752 S    
N13   N14   1.397865 A    
C7    H7    1.077432 S    
C57   C59   1.552199 S    
C124  O28   1.223131 D    
N12   Ni7   1.894906 S    
C1    H1    1.078132 S    
N24   Ni8   1.890482 S    
C134  O46   1.219696 D    
C3    H3    1.078244 S    
N13   Ni2   1.890483 S    
C61   C63   1.615267 S    
C25   C133  1.478106 S    
C31   C44   1.383400 A    
C54   H34   1.109312 S    
C76   C82   1.577420 S    
C130  O34   1.221575 D    
C86   C90   1.613409 S    
C33   N45   1.437316 S    
C64   N35   1.484618 S    
C98   C107  1.564816 S    
C85   C93   1.591682 S    
C16   C24   1.375664 A    
N46   O52   1.300516 A    
C88   C96   1.585958 S    
C28   C136  1.478179 S    
C78   C82   1.591845 S    
N22   Ni6   1.890482 S    
C125  O29   1.222004 D    
C132  H108  1.074197 S    
C68   C84   1.556111 S    
N26   N29   1.385335 A    
C69   C85   1.571483 S    
C133  O45   1.219749 D    
C128  O32   1.222087 D    
C115  O3    1.221473 D    
C27   C135  1.478087 S    
N10   Ni5   1.894906 S    
C74   N38   1.479633 S    
C127  H103  1.085299 S    
C68   H44   1.106492 S    
C18   C81   1.484379 S    
C1    N1    1.318834 A    
C123  H99   1.083417 S    
C37   H21   1.069418 S    
N31   Ni4   1.890552 S    
C116  H92   1.085550 S    
C56   C116  1.510689 S    
C87   C95   1.591869 S    
N43   O41   1.302619 A    
C95   H57   1.114373 S    
C103  H75   1.113114 S    
C93   H59   1.114412 S    
C80   C94   1.587729 S    
C33   N25   1.330323 A    
C74   C90   1.561342 S    
C7    C20   1.390607 A    
C97   C101  1.529567 S    
C35   N47   1.437057 S    
N14   Ni1   1.890813 S    
C37   C46   1.370230 A    
C79   C83   1.597339 S    
C55   C115  1.519341 S    
C70   H54   1.106379 S    
C17   C82   1.477372 S    
H83   C106  1.110265 S    
C77   C121  1.540524 S    
C128  H104  1.085252 S    
N1    Ni1   1.895126 S    
C52   H32   1.113593 S    
N17   Ni1   1.894904 S    
C35   C47   1.392637 A    
C101  C109  1.547536 S    
H81   C105  1.110258 S    
C35   N27   1.330685 A    
C129  H105  1.077910 S    
C29   H17   1.070779 S    
C3    C19   1.388844 A    
C31   H19   1.069309 S    
N41   O37   1.302597 A    
N4    Ni4   1.893204 S    
C131  H107  1.077791 S    
N20   Ni4   1.893009 S    
C51   C60   1.546098 S    
C12   N12   1.323226 A    
C68   H48   1.112211 S    
C65   H41   1.110894 S    
H39   C58   1.107302 S    
C25   C41   1.385671 A    
C135  H111  1.081954 S    
C77   C125  1.533020 S    
C119  O23   1.222420 D    
C79   C123  1.540365 S    
C6    H6    1.077586 S    
C75   N39   1.473246 S    
C4    H4    1.076780 S    
C11   C22   1.379041 A    
C29   N21   1.328591 A    
C4    C20   1.386039 A    
C122  H98   1.078903 S    
C118  O22   1.222602 D    
C14   H14   1.080074 S    
C87   C91   1.614693 S    
C120  H96   1.082027 S    
N44   O44   1.299538 A    
N1    N6    1.385335 A    
C97   C107  1.565236 S    
C6    C17   1.383788 A    
C49   C53   1.519440 S    
N3    N8    1.385335 A    
C51   C55   1.520722 S    
N2    Ni2   1.893204 S    
C75   H63   1.102809 S    
C38   N30   1.318010 A    
N18   Ni2   1.893009 S    
C10   N10   1.323340 A    
C40   H24   1.073615 S    
C53   C113  1.519171 S    
N37   O13   1.299678 A    
C69   H51   1.110278 S    
H84   C106  1.110136 S    
C94   H60   1.115092 S    
N5    Ni5   1.890858 S    
C7    N7    1.322932 A    
C57   C63   1.570055 S    
N45   O50   1.300377 A    
C78   C122  1.536621 S    
C80   C128  1.533664 S    
C36   C48   1.395711 A    
C2    H2    1.077041 S    
C98   H70   1.113215 S    
C56   H36   1.109462 S    
C88   C92   1.613537 S    
N25   Ni6   1.893206 S    
N27   Ni8   1.893206 S    
C102  C109  1.546423 S    
H40   C58   1.112897 S    
N33   O6    1.301307 A    
C85   C89   1.614561 S    
C15   H15   1.079035 S    
C99   H67   1.107930 S    
N15   Ni4   1.890483 S    
C5    C18   1.390927 A    
C39   N31   1.316561 A    
N8    Ni8   1.890555 S    
C55   C62   1.585702 S    
N15   N16   1.397865 A    
C80   C84   1.591643 S    
N34   O7    1.301844 A    
N9    N10   1.397865 A    
C34   C46   1.395099 A    
C103  C110  1.547533 S    
C68   C70   1.510970 S    
C50   C59   1.552583 S    
C105  C107  1.540817 S    
C50   H26   1.111544 S    
C126  H102  1.085251 S    
C63   N34   1.484043 S    
C109  C111  1.556807 S    
C52   C56   1.551082 S    
C78   C126  1.533606 S    
C43   C61   1.494882 S    
C19   C84   1.477926 S    
C2    N2    1.321193 A    
C10   C21   1.380274 A    
C74   H62   1.105453 S    
C70   C86   1.573172 S    
N39   O18   1.300417 A    
C103  H79   1.110805 S    
C79   C93   1.597200 S    
C115  H91   1.079028 S    
C70   H52   1.104690 S    
N6    Ni6   1.890555 S    
C75   C91   1.563976 S    
C127  O31   1.222012 D    
C73   C89   1.564559 S    
C78   C96   1.587891 S    
C136  H112  1.081525 S    
C1    C17   1.388385 A    
C76   C92   1.561350 S    
C121  O25   1.223162 D    
C65   H45   1.111870 S    
C73   C83   1.583909 S    
N48   O55   1.300138 A    
C50   H30   1.113911 S    
C91   N43   1.497240 S    
C8    N8    1.317904 A    
C98   H66   1.107847 S    
C65   C81   1.559632 S    
H88   C112  1.114053 S    
C50   C54   1.552666 S    
C32   C44   1.396385 A    
C71   C87   1.570831 S    
C13   N13   1.327856 A    
N29   Ni2   1.890552 S    
C72   C88   1.572921 S    
C36   N48   1.439223 S    
C52   C60   1.552582 S    
