data_mof_unit_4130.cif
_audit_creation_date              2013-03-05T15:40:17-0500
_audit_creation_method            fapswitch 2.2
_symmetry_space_group_name_H-M    P1
_symmetry_Int_Tables_number       1
_space_group_crystal_system       triclinic
_cell_length_a                    28.235266
_cell_length_b                    18.339671
_cell_length_c                    16.986154
_cell_angle_alpha                 89.84885
_cell_angle_beta                  61.155962
_cell_angle_gamma                 89.98813
_cell_volume                      7704.58222687

loop_
_atom_site_label
_atom_site_type_symbol
_atom_site_description
_atom_site_fract_x
_atom_site_fract_y
_atom_site_fract_z
_atom_type_partial_charge
O1    O     O_R   0.746490 0.236330 0.638080 -0.640477
O2    O     O_R   0.253510 0.763670 0.361920 -0.658144
O3    O     O_R   0.253510 0.236330 0.361920 -0.643257
O4    O     O_R   0.746490 0.763670 0.638080 -0.648103
O5    O     O_R   0.246490 0.736330 0.638080 -0.635981
O6    O     O_R   0.753510 0.263670 0.361920 -0.639718
O7    O     O_R   0.753510 0.736330 0.361920 -0.639067
O8    O     O_R   0.246490 0.263670 0.638080 -0.639979
O9    O     O_R   0.674170 0.186160 0.516270 -0.624472
O10   O     O_R   0.325830 0.813840 0.483730 -0.613621
O11   O     O_R   0.325830 0.186160 0.483730 -0.604311
O12   O     O_R   0.674170 0.813840 0.516270 -0.624135
O13   O     O_R   0.174170 0.686160 0.516270 -0.643083
O14   O     O_R   0.825830 0.313840 0.483730 -0.628143
O15   O     O_R   0.825830 0.686160 0.483730 -0.642759
O16   O     O_R   0.174170 0.313840 0.516270 -0.614550
O17   O     O_R   0.739960 0.127620 0.525000 -0.559681
O18   O     O_R   0.260040 0.872380 0.475000 -0.635065
O19   O     O_R   0.260040 0.127620 0.475000 -0.662567
O20   O     O_R   0.739960 0.872380 0.525000 -0.562676
O21   O     O_R   0.239960 0.627620 0.525000 -0.553899
O22   O     O_R   0.760040 0.372380 0.475000 -0.560339
O23   O     O_R   0.760040 0.627620 0.475000 -0.560721
O24   O     O_R   0.239960 0.372380 0.525000 -0.573978
O25   O     O_R   0.680700 0.294870 0.629350 -0.551723
O26   O     O_R   0.319300 0.705130 0.370650 -0.555602
O27   O     O_R   0.319300 0.294870 0.370650 -0.548321
O28   O     O_R   0.680700 0.705130 0.629350 -0.557570
O29   O     O_R   0.180700 0.794870 0.629350 -0.555480
O30   O     O_R   0.819300 0.205130 0.370650 -0.557751
O31   O     O_R   0.819300 0.794870 0.370650 -0.553924
O32   O     O_R   0.180700 0.205130 0.629350 -0.570859
C1    C     C_R   0.701414 0.268182 0.676373 0.899985
C2    C     C_R   0.299102 0.734116 0.323603 0.912597
C3    C     C_R   0.298667 0.268069 0.323634 0.918091
C4    C     C_R   0.700808 0.734319 0.676365 0.894610
C5    C     C_R   0.200930 0.766583 0.676314 0.901254
C6    C     C_R   0.798868 0.233268 0.323746 0.894778
C7    C     C_R   0.799078 0.766601 0.323732 0.899012
C8    C     C_R   0.200807 0.233629 0.676601 0.921476
C9    C     C_R   0.690880 0.129463 0.536647 0.903543
C10   C     C_R   0.309111 0.870732 0.463398 0.878738
C11   C     C_R   0.309295 0.129487 0.462527 0.863841
C12   C     C_R   0.690898 0.870544 0.536503 0.898545
C13   C     C_R   0.190985 0.629309 0.536051 0.910248
C14   C     C_R   0.809076 0.370626 0.463644 0.897285
C15   C     C_R   0.809065 0.629459 0.463717 0.898269
C16   C     C_R   0.190916 0.370568 0.536282 0.904141
Zn1   Zn    Zn3+2 0.792340 0.208750 0.507670 1.137101
Zn2   Zn    Zn3+2 0.207660 0.791250 0.492330 1.066178
Zn3   Zn    Zn3+2 0.207660 0.208750 0.492330 1.072720
Zn4   Zn    Zn3+2 0.792340 0.791250 0.507670 1.110774
Zn5   Zn    Zn3+2 0.292340 0.708750 0.507670 1.148089
Zn6   Zn    Zn3+2 0.707660 0.291250 0.492330 1.138222
Zn7   Zn    Zn3+2 0.707660 0.708750 0.492330 1.134683
Zn8   Zn    Zn3+2 0.292340 0.291250 0.507670 1.141233
C17   C     C_R   0.538283 0.133068 0.532232 -0.090186
C18   C     C_R   0.458444 0.867534 0.478264 -0.085953
C19   C     C_R   0.459189 0.132983 0.475843 -0.095232
C20   C     C_R   0.537676 0.867384 0.534116 -0.081370
C21   C     C_R   0.038930 0.632813 0.528995 -0.090133
C22   C     C_R   0.960862 0.367268 0.470681 -0.083991
C23   C     C_R   0.961980 0.632917 0.467981 -0.089959
C24   C     C_R   0.039449 0.367169 0.528063 -0.090558
C25   C     C_R   0.518442 0.199953 0.518112 0.199071
C26   C     C_R   0.478308 0.800615 0.492151 0.209423
C27   C     C_R   0.479517 0.199891 0.488568 0.200130
C28   C     C_R   0.517245 0.800555 0.521545 0.210710
C29   C     C_R   0.019580 0.699706 0.513831 0.206310
C30   C     C_R   0.980843 0.300383 0.484365 0.207957
C31   C     C_R   0.981863 0.699762 0.481901 0.202984
C32   C     C_R   0.019484 0.300329 0.514414 0.213287
C33   C     C_R   0.477899 0.066725 0.492480 -0.012954
C34   C     C_R   0.518359 0.933771 0.518888 -0.012960
C35   C     C_R   0.518687 0.066720 0.517848 -0.012696
C36   C     C_R   0.477513 0.933825 0.493710 -0.011829
C37   C     C_R   0.980480 0.566555 0.484949 -0.012521
C38   C     C_R   0.020402 0.433543 0.512343 -0.015797
C39   C     C_R   0.020254 0.566503 0.512568 -0.011563
C40   C     C_R   0.980014 0.433590 0.486107 -0.014657
C41   C     C_R   0.959583 0.500091 0.473190 0.047709
C42   C     C_R   0.040905 0.499996 0.525020 0.049130
C43   C     C_R   0.456962 0.000283 0.480883 0.048302
C44   C     C_R   0.539406 0.000222 0.530203 0.047292
C45   C     C_R   0.894113 0.433871 0.444523 -0.035398
C46   C     C_R   0.106099 0.566168 0.554376 -0.036406
C47   C     C_R   0.105986 0.433666 0.554770 -0.028706
C48   C     C_R   0.894220 0.566391 0.444246 -0.027522
C49   C     C_R   0.392465 0.934155 0.449887 -0.027769
C50   C     C_R   0.605512 0.066388 0.557219 -0.028763
C51   C     C_R   0.605436 0.933827 0.557516 -0.031311
C52   C     C_R   0.392862 0.066297 0.448286 -0.015225
C53   C     C_R   0.844845 0.434760 0.439443 -0.227071
C54   C     C_R   0.155197 0.565214 0.560063 -0.218226
C55   C     C_R   0.155005 0.434523 0.560643 -0.245444
C56   C     C_R   0.844892 0.565499 0.439368 -0.234809
C57   C     C_R   0.344784 0.934999 0.439983 -0.170152
C58   C     C_R   0.655056 0.065401 0.561394 -0.229114
C59   C     C_R   0.655043 0.934604 0.561406 -0.233229
C60   C     C_R   0.345206 0.065341 0.437995 -0.188037
C61   C     C_R   0.825223 0.500145 0.425159 0.379098
C62   C     C_R   0.174390 0.499923 0.575553 0.414549
C63   C     C_R   0.327027 0.999799 0.419797 0.374074
C64   C     C_R   0.674888 0.999960 0.575212 0.378516
C65   C     C_R   0.916235 0.500122 0.453176 0.067284
C66   C     C_R   0.084074 0.499945 0.545511 0.064630
C67   C     C_R   0.414104 0.000263 0.459536 0.052055
C68   C     C_R   0.583225 0.000150 0.549040 0.065584
C69   C     C_R   0.077983 0.368929 0.557671 -0.079083
C70   C     C_R   0.922413 0.631147 0.440622 -0.114485
C71   C     C_R   0.922178 0.369138 0.441393 -0.091331
C72   C     C_R   0.078111 0.630948 0.557179 -0.113757
C73   C     C_R   0.577117 0.869121 0.561748 -0.088519
C74   C     C_R   0.421039 0.130995 0.445338 -0.099031
C75   C     C_R   0.420409 0.869461 0.447706 -0.083305
C76   C     C_R   0.577382 0.131192 0.560671 -0.105041
H1    H     H_    0.084513 0.319586 0.585583 0.235131
H2    H     H_    0.914907 0.680512 0.414328 0.233633
H3    H     H_    0.915519 0.319908 0.413652 0.224963
H4    H     H_    0.085281 0.680254 0.583766 0.233738
H5    H     H_    0.584287 0.819803 0.588946 0.224267
H6    H     H_    0.415442 0.179969 0.415607 0.224562
H7    H     H_    0.414972 0.820437 0.418170 0.224258
H8    H     H_    0.584378 0.180491 0.587884 0.224325
H9    H     H_    0.652455 0.196583 0.066885 0.134965
H10   H     H_    0.239200 0.612446 0.056554 0.138552
H11   H     H_    0.348379 0.196752 0.932249 0.135315
H12   H     H_    0.759463 0.612449 0.946232 0.139857
H13   H     H_    0.243925 0.868595 0.960794 0.136082
H14   H     H_    0.840514 0.286425 0.940293 0.163609
H15   H     H_    0.757775 0.869264 0.035948 0.136626
H16   H     H_    0.159826 0.284173 0.059733 0.161005
C77   C     C_R   0.716175 0.257808 0.958237 0.164110
C78   C     C_R   0.269468 0.720899 0.057442 0.168155
C79   C     C_R   0.284405 0.256865 0.041306 0.163913
C80   C     C_R   0.730452 0.721240 0.942663 0.168399
C81   C     C_R   0.218652 0.758547 0.954176 0.165631
C82   C     C_R   0.774586 0.231275 0.052114 0.147692
C83   C     C_R   0.781478 0.758878 0.045600 0.164981
C84   C     C_R   0.225923 0.230103 0.947552 0.151125
C85   C     C_R   0.769946 0.281743 0.923014 -0.224456
C86   C     C_R   0.269225 0.793533 0.030813 -0.199734
C87   C     C_R   0.230484 0.280045 0.076741 -0.224842
C88   C     C_R   0.731628 0.794064 0.967567 -0.201596
C89   C     C_R   0.218188 0.686308 0.981490 -0.222167
C90   C     C_R   0.721074 0.207097 0.087263 -0.237309
C91   C     C_R   0.781061 0.686467 0.019944 -0.225828
C92   C     C_R   0.279595 0.206641 0.912141 -0.238366
H17   H     H_    0.789294 0.311707 0.860221 0.150739
H18   H     H_    0.289339 0.835683 0.048341 0.150845
H19   H     H_    0.211006 0.309569 0.139630 0.150124
H20   H     H_    0.712151 0.836407 0.948865 0.146348
H21   H     H_    0.197497 0.644504 0.964640 0.140437
H22   H     H_    0.701964 0.176875 0.149896 0.146358
H23   H     H_    0.801117 0.644459 0.037972 0.139202
H24   H     H_    0.298833 0.176971 0.849329 0.144194
C93   C     C_R   0.798996 0.268046 0.969121 -0.087763
C94   C     C_R   0.243861 0.812238 0.980059 -0.110748
C95   C     C_R   0.201431 0.266238 0.030727 -0.088035
C96   C     C_R   0.757115 0.812759 0.018091 -0.107558
C97   C     C_R   0.242535 0.667923 0.033714 -0.107346
C98   C     C_R   0.692612 0.218966 0.039970 -0.110146
C99   C     C_R   0.756665 0.668092 0.967858 -0.105994
C100  C     C_R   0.308091 0.218606 0.959378 -0.105939
C101  C     C_R   0.634647 0.311765 0.955371 0.419462
C102  C     C_R   0.340449 0.647706 0.073856 0.449408
C103  C     C_R   0.365848 0.311236 0.044313 0.420571
C104  C     C_R   0.659421 0.647896 0.926296 0.449277
C105  C     C_R   0.141931 0.822133 0.948341 0.414027
C106  C     C_R   0.850127 0.165140 0.059426 0.438807
C107  C     C_R   0.858423 0.821933 0.051330 0.415125
C108  C     C_R   0.149794 0.165263 0.940569 0.425552
C109  C     C_R   0.609291 0.336269 0.905048 -0.322658
C110  C     C_R   0.377703 0.644627 0.108190 -0.319530
C111  C     C_R   0.391109 0.335755 0.094731 -0.323322
C112  C     C_R   0.622181 0.644884 0.891871 -0.317961
C113  C     C_R   0.113627 0.841921 0.901177 -0.306427
C114  C     C_R   0.882554 0.152795 0.101760 -0.295285
C115  C     C_R   0.886653 0.841580 0.098624 -0.305858
C116  C     C_R   0.115732 0.156446 0.900560 -0.286484
C117  C     C_R   0.625950 0.309468 0.819297 0.229741
C118  C     C_R   0.369384 0.685866 0.182265 0.206002
C119  C     C_R   0.374401 0.308815 0.180547 0.229032
C120  C     C_R   0.630380 0.686498 0.817948 0.206184
C121  C     C_R   0.127414 0.811111 0.818281 0.206936
C122  C     C_R   0.870928 0.187690 0.181511 0.199592
C123  C     C_R   0.872775 0.810664 0.181593 0.205118
C124  C     C_R   0.124976 0.197680 0.825061 0.200215
C125  C     C_R   0.676784 0.277993 0.773294 -0.152581
C126  C     C_R   0.321024 0.722246 0.227976 -0.141290
C127  C     C_R   0.323487 0.277509 0.226616 -0.150084
C128  C     C_R   0.678764 0.722826 0.772113 -0.147605
C129  C     C_R   0.176748 0.775952 0.772793 -0.161093
C130  C     C_R   0.821613 0.222301 0.227871 -0.157828
C131  C     C_R   0.823272 0.775894 0.227249 -0.160183
C132  C     C_R   0.177125 0.225108 0.773701 -0.167115
C133  C     C_R   0.706145 0.260977 0.818915 -0.339060
C134  C     C_R   0.289303 0.736976 0.185728 -0.329353
C135  C     C_R   0.294239 0.260289 0.180892 -0.332193
C136  C     C_R   0.710484 0.737579 0.814353 -0.331874
C137  C     C_R   0.206168 0.756883 0.817720 -0.316215
C138  C     C_R   0.790596 0.238801 0.184888 -0.313891
C139  C     C_R   0.793743 0.757142 0.182410 -0.316424
C140  C     C_R   0.209890 0.237921 0.814544 -0.324083
H25   H     H_    0.745784 0.236158 0.783197 0.205659
H26   H     H_    0.254254 0.772233 0.217374 0.198628
H27   H     H_    0.254564 0.235438 0.216688 0.204908
H28   H     H_    0.745564 0.772896 0.782531 0.199303
H29   H     H_    0.243888 0.727133 0.783348 0.210649
H30   H     H_    0.753448 0.269794 0.219164 0.206605
H31   H     H_    0.755837 0.727683 0.216996 0.209576
H32   H     H_    0.248291 0.266045 0.778629 0.208069
C141  C     C_R   0.684530 0.275201 0.910913 -0.024483
C142  C     C_R   0.299958 0.701391 0.106144 -0.026758
C143  C     C_R   0.315989 0.274408 0.088731 -0.023157
C144  C     C_R   0.699866 0.701811 0.894051 -0.026352
C145  C     C_R   0.188305 0.778703 0.906206 -0.037502
C146  C     C_R   0.806327 0.213328 0.098464 -0.048219
C147  C     C_R   0.811799 0.778857 0.093663 -0.038687
C148  C     C_R   0.194038 0.212777 0.901240 -0.045675
O33   O     O_R   0.062020 0.072840 0.007170 -0.577981
O34   O     O_R   0.937980 0.927160 0.992830 -0.598779
O35   O     O_R   0.937980 0.072840 0.992830 -0.569834
O36   O     O_R   0.062020 0.927160 0.007170 -0.597653
O37   O     O_R   0.562020 0.572840 0.007170 -0.570851
O38   O     O_R   0.437980 0.427160 0.992830 -0.602772
O39   O     O_R   0.437980 0.572840 0.992830 -0.570059
O40   O     O_R   0.562020 0.427160 0.007170 -0.603277
O41   O     O_R   0.947860 0.073950 0.109290 -0.569077
O42   O     O_R   0.052140 0.926050 0.890710 -0.580768
O43   O     O_R   0.052140 0.073950 0.890710 -0.581041
O44   O     O_R   0.947860 0.926050 0.109290 -0.573864
O45   O     O_R   0.447860 0.573950 0.109290 -0.565446
O46   O     O_R   0.552140 0.426050 0.890710 -0.576480
O47   O     O_R   0.552140 0.573950 0.890710 -0.564838
O48   O     O_R   0.447860 0.426050 0.109290 -0.576213
C149  C     C_R   0.073909 0.100622 0.934211 0.963102
C150  C     C_R   0.927410 0.898177 0.064679 0.900765
C151  C     C_R   0.925713 0.099778 0.066121 0.958336
C152  C     C_R   0.072776 0.898373 0.935226 0.897999
C153  C     C_R   0.576080 0.597078 0.931721 0.936792
C154  C     C_R   0.429708 0.395670 0.062567 0.849174
C155  C     C_R   0.423894 0.597029 0.068234 0.937272
C156  C     C_R   0.570514 0.395889 0.937321 0.849325
Zn9   Zn    Zn3+2 0.505960 0.500000 0.080520 1.124077
Zn10  Zn    Zn3+2 0.494040 0.500000 0.919480 1.126116
Zn11  Zn    Zn3+2 0.005960 0.000000 0.080520 1.119821
Zn12  Zn    Zn3+2 0.994040 0.000000 0.919480 1.096841
N1    N     N_R   0.038940 0.232083 0.529275 0.226282
O49   O     O_R   0.005109 0.183923 0.583799 -0.302617
O50   O     O_R   0.090003 0.215741 0.483198 -0.378809
N2    N     N_R   0.960778 0.768120 0.471039 0.226430
O51   O     O_R   0.937919 0.812857 0.538460 -0.337123
O52   O     O_R   0.969663 0.789268 0.391924 -0.361659
N3    N     N_R   0.961393 0.232193 0.469565 0.228645
O53   O     O_R   0.995221 0.184337 0.414916 -0.292948
O54   O     O_R   0.910356 0.215569 0.515822 -0.368589
N4    N     N_R   0.041369 0.767934 0.523111 0.226783
O55   O     O_R   0.065154 0.811589 0.454414 -0.345441
O56   O     O_R   0.032148 0.790188 0.601875 -0.365768
N5    N     N_R   0.536606 0.732318 0.536618 0.229086
O57   O     O_R   0.502767 0.684769 0.592345 -0.284324
O58   O     O_R   0.587461 0.715227 0.489383 -0.363264
N6    N     N_R   0.460152 0.268048 0.473208 0.225532
O59   O     O_R   0.494064 0.316458 0.419370 -0.324402
O60   O     O_R   0.408988 0.284080 0.518256 -0.368600
N7    N     N_R   0.458480 0.732431 0.478110 0.227311
O61   O     O_R   0.492045 0.683836 0.424509 -0.284811
O62   O     O_R   0.407218 0.716836 0.523488 -0.364385
N8    N     N_R   0.538672 0.268182 0.531173 0.224892
O63   O     O_R   0.505357 0.317679 0.583255 -0.325302
O64   O     O_R   0.589918 0.283552 0.484629 -0.367857
O65   O     O_3   0.782311 0.500031 0.407188 -0.560439
C157  C     C_3   0.803334 0.505935 0.313314 0.100273
H33   H     H_    0.830265 0.458890 0.278083 0.134300
H34   H     H_    0.826261 0.557887 0.287318 0.128768
C158  C     C_3   0.756825 0.505740 0.292048 -0.722081
H35   H     H_    0.729409 0.552435 0.325787 0.265550
H36   H     H_    0.772875 0.510706 0.218322 0.188419
H37   H     H_    0.733649 0.453986 0.315770 0.261439
O66   O     O_3   0.216975 0.500293 0.594554 -0.571999
C159  C     C_3   0.197102 0.486341 0.687276 0.140612
H38   H     H_    0.229608 0.458733 0.695083 0.180105
H39   H     H_    0.161530 0.448803 0.717205 0.122187
C160  C     C_3   0.183428 0.557565 0.739996 -0.846790
H40   H     H_    0.149767 0.585835 0.736341 0.242603
H41   H     H_    0.170904 0.545984 0.811590 0.217533
H42   H     H_    0.219405 0.593814 0.712136 0.274505
O67   O     O_3   0.314986 0.997775 0.349385 -0.603799
C161  C     C_3   0.259263 0.006167 0.378065 0.165420
H43   H     H_    0.251983 0.062405 0.362163 0.181418
H44   H     H_    0.232588 0.995457 0.451108 0.161901
C162  C     C_3   0.243345 0.955794 0.323589 -0.788766
H45   H     H_    0.253238 0.898597 0.330434 0.278143
H46   H     H_    0.199253 0.960179 0.347557 0.222546
H47   H     H_    0.265617 0.971226 0.251377 0.243935
O68   O     O_3   0.718162 0.000005 0.592249 -0.560149
C163  C     C_3   0.697621 0.995641 0.686121 0.107760
H48   H     H_    0.674357 0.944135 0.713631 0.132452
H49   H     H_    0.671146 0.043269 0.720517 0.132334
C164  C     C_3   0.744528 0.996126 0.706387 -0.735136
H50   H     H_    0.768066 0.047452 0.681049 0.263203
H51   H     H_    0.728864 0.992402 0.780114 0.188425
H52   H     H_    0.771497 0.948858 0.673518 0.262243
O69   O     O_3   0.614604 0.330329 0.044899 -0.615838
C165  C     C_3   0.567378 0.289151 0.098730 0.081017
H53   H     H_    0.572211 0.230508 0.079375 0.116069
H54   H     H_    0.532220 0.310714 0.093585 0.185193
C166  C     C_3   0.554765 0.294351 0.196347 -0.610891
H55   H     H_    0.545282 0.351676 0.219662 0.274390
H56   H     H_    0.519567 0.259370 0.239415 0.248866
H57   H     H_    0.590022 0.275819 0.203276 0.228019
O70   O     O_3   0.344651 0.600786 0.006994 -0.575528
C167  C     C_3   0.322595 0.532203 0.046466 0.075908
H58   H     H_    0.281415 0.537482 0.105399 0.098450
H59   H     H_    0.348257 0.504215 0.070158 0.156523
C168  C     C_3   0.318935 0.483855 0.976971 -0.675822
H60   H     H_    0.359994 0.474089 0.919812 0.287645
H61   H     H_    0.300351 0.430725 0.007953 0.213520
H62   H     H_    0.293621 0.510374 0.951457 0.229282
O71   O     O_3   0.385924 0.330104 0.954749 -0.615647
C169  C     C_3   0.433237 0.289274 0.901089 0.079985
H63   H     H_    0.428497 0.230567 0.920569 0.116524
H64   H     H_    0.468321 0.311029 0.906281 0.185667
C170  C     C_3   0.445900 0.294708 0.803436 -0.609999
H65   H     H_    0.455488 0.352080 0.779912 0.275992
H66   H     H_    0.481033 0.259760 0.760538 0.247756
H67   H     H_    0.410635 0.276272 0.796508 0.227772
O72   O     O_3   0.655201 0.600711 0.993220 -0.577236
C171  C     C_3   0.677277 0.532284 0.953846 0.076620
H68   H     H_    0.718503 0.537811 0.895017 0.099259
H69   H     H_    0.651695 0.504409 0.930010 0.157026
C172  C     C_3   0.680806 0.483636 0.023505 -0.679227
H70   H     H_    0.639689 0.473485 0.080438 0.287578
H71   H     H_    0.699557 0.430718 0.992544 0.215084
H72   H     H_    0.705910 0.510098 0.049369 0.227500
O73   O     O_3   0.126063 0.847666 0.034074 -0.618227
C173  C     C_3   0.090437 0.796420 0.096967 0.080700
H73   H     H_    0.106536 0.739719 0.081062 0.129590
H74   H     H_    0.050419 0.798232 0.099118 0.190723
C174  C     C_3   0.082759 0.815186 0.189475 -0.635361
H75   H     H_    0.062813 0.869160 0.211126 0.267233
H76   H     H_    0.057262 0.772940 0.238488 0.247101
H77   H     H_    0.122594 0.816795 0.187753 0.233907
O74   O     O_3   0.861537 0.131115 0.979423 -0.572329
C175  C     C_3   0.830281 0.066614 0.999136 0.097420
H78   H     H_    0.786686 0.079763 0.026986 0.129241
H79   H     H_    0.835364 0.031273 0.048081 0.133624
C176  C     C_3   0.848364 0.023319 0.913079 -0.670331
H80   H     H_    0.891575 0.007857 0.884555 0.272367
H81   H     H_    0.823707 0.972923 0.927588 0.201730
H82   H     H_    0.843154 0.056546 0.863031 0.245765
O75   O     O_3   0.874806 0.846986 0.965066 -0.616309
C177  C     C_3   0.911050 0.795823 0.903488 0.076285
H83   H     H_    0.893748 0.739663 0.917413 0.131769
H84   H     H_    0.949813 0.795556 0.905750 0.185573
C178  C     C_3   0.922721 0.816756 0.809236 -0.626449
H85   H     H_    0.943417 0.870507 0.790303 0.264808
H86   H     H_    0.949058 0.774851 0.761002 0.248690
H87   H     H_    0.884348 0.819842 0.806156 0.234302
O76   O     O_3   0.139149 0.129151 0.019228 -0.575314
C179  C     C_3   0.170825 0.065004 0.997105 0.098187
H88   H     H_    0.214472 0.078507 0.967882 0.129084
H89   H     H_    0.164981 0.030608 0.948409 0.131163
C180  C     C_3   0.154136 0.020275 0.082023 -0.668751
H90   H     H_    0.110943 0.004252 0.111739 0.274322
H91   H     H_    0.179204 0.970211 0.065744 0.202713
H92   H     H_    0.159960 0.052708 0.131831 0.244383
N9    N     N_R   0.590087 0.309899 0.781449 0.208532
O77   O     O_R   0.588991 0.365533 0.734572 -0.323513
O78   O     O_R   0.568456 0.248684 0.776486 -0.467108
N10   N     N_R   0.409555 0.691751 0.211062 0.226127
O79   O     O_R   0.413872 0.641088 0.261080 -0.309227
O80   O     O_R   0.433531 0.754021 0.203069 -0.377885
N11   N     N_R   0.410236 0.309066 0.218464 0.207705
O81   O     O_R   0.411461 0.364578 0.265085 -0.326273
O82   O     O_R   0.431823 0.247819 0.223572 -0.452940
N12   N     N_R   0.590129 0.692743 0.789331 0.225880
O83   O     O_R   0.585568 0.642328 0.739551 -0.304790
O84   O     O_R   0.566480 0.755197 0.796947 -0.394903
N13   N     N_R   0.090863 0.813414 0.781669 0.224655
O85   O     O_R   0.091523 0.868292 0.732324 -0.327211
O86   O     O_R   0.063148 0.755454 0.786054 -0.428590
N14   N     N_R   0.909190 0.189349 0.214666 0.229603
O87   O     O_R   0.910807 0.136521 0.264700 -0.307539
O88   O     O_R   0.935709 0.249191 0.207463 -0.388539
N15   N     N_R   0.909407 0.812454 0.218070 0.221893
O89   O     O_R   0.909061 0.867048 0.267227 -0.306566
O90   O     O_R   0.937154 0.754428 0.213272 -0.430951
N16   N     N_R   0.081265 0.218304 0.807333 0.237261
O91   O     O_R   0.089894 0.264544 0.743541 -0.400908
O92   O     O_R   0.031227 0.208769 0.868916 -0.364423

loop_
_geom_bond_atom_site_label_1
_geom_bond_atom_site_label_2
_geom_bond_distance
_ccdc_geom_bond_type
C169  H64   1.110357 S    
O4    C4    1.251201 A    
C178  H85   1.110812 S    
O5    C5    1.256971 A    
C134  H26   1.083837 S    
C161  C162  1.522362 S    
O7    Zn7   2.016476 S    
O31   Zn4   2.071383 S    
C106  O74   1.386311 S    
C107  C115  1.424784 A    
C70   H2    1.073843 S    
N3    O54   1.301300 A    
O73   C173  1.412343 S    
C164  H50   1.111363 S    
C126  C134  1.417479 A    
C159  H38   1.110507 S    
C81   C94   1.405007 A    
C106  C114  1.428620 A    
C84   C95   1.405538 A    
C12   C59   1.474114 S    
C172  H72   1.110285 S    
C169  C170  1.521885 S    
C131  C139  1.416956 A    
C129  C137  1.415918 A    
N10   O79   1.302198 A    
C22   C30   1.414813 A    
C1    C125  1.457128 S    
C157  H33   1.115400 S    
C137  H29   1.083675 S    
C84   C148  1.488308 S    
C50   C76   1.414865 A    
C132  C140  1.418663 A    
C91   H23   1.083455 S    
C19   C33   1.406233 A    
C55   C62   1.392118 A    
O2    C2    1.252078 A    
C87   H19   1.082988 S    
C136  H28   1.083786 S    
C108  O76   1.386393 S    
C33   C35   1.410988 A    
O8    Zn8   2.016476 S    
O6    Zn6   2.019271 S    
C51   C68   1.406893 A    
C36   C43   1.410674 A    
C114  C151  1.444883 S    
C17   C76   1.402751 A    
C37   C39   1.410550 A    
C102  C110  1.428808 A    
C75   H7    1.077191 S    
C171  H68   1.113995 S    
C118  C126  1.375466 A    
C10   C57   1.474234 S    
C53   C61   1.389850 A    
C72   H4    1.073808 S    
N16   O92   1.301578 A    
O33   Zn11  1.982828 S    
O27   C3    1.292244 A    
C167  H58   1.113919 S    
C172  H70   1.110656 S    
C7    C131  1.449140 S    
O33   C149  1.226165 A    
C5    C129  1.450239 S    
C168  H62   1.110309 S    
C38   C42   1.410234 A    
O36   Zn11  1.986812 S    
O40   C156  1.234129 A    
C140  H32   1.083607 S    
C165  H53   1.114414 S    
C103  O71   1.385917 S    
C57   C63   1.394523 A    
C85   C93   1.402828 A    
O30   Zn1   2.071767 S    
C23   C31   1.415558 A    
C178  H87   1.111061 S    
N13   O85   1.302428 A    
N8    O64   1.301303 A    
C163  H48   1.115293 S    
N15   O89   1.302428 A    
C134  C142  1.398571 A    
C111  C119  1.387189 A    
C164  H52   1.111363 S    
C125  C133  1.415487 A    
C112  C120  1.388271 A    
N14   O88   1.300514 A    
N11   O81   1.302122 A    
O23   Zn7   2.017216 S    
O24   Zn8   2.017216 S    
O20   Zn4   2.017216 S    
O9    C9    1.256617 A    
C160  H41   1.110318 S    
O35   C151  1.225171 A    
C180  H90   1.110816 S    
O39   Zn10  1.986810 S    
O13   C13   1.255888 A    
O45   Zn9   1.999589 S    
C89   C97   1.399966 A    
C128  C136  1.418211 A    
C114  C122  1.388470 A    
C54   C62   1.390091 A    
O12   C12   1.257529 A    
O71   C169  1.415798 S    
C81   C145  1.485492 S    
O7    C7    1.255995 A    
O9    Zn6   2.097541 S    
O8    C8    1.256774 A    
N12   O83   1.302187 A    
O37   C153  1.226307 A    
C33   C43   1.409595 A    
O11   Zn8   2.099152 S    
C107  O75   1.383731 S    
O46   C156  1.263286 A    
N2    O51   1.301087 A    
C49   C75   1.415356 A    
C176  H80   1.110825 S    
N4    O56   1.300415 A    
H9    C98   1.078043 S    
O16   Zn3   2.099152 S    
C103  C143  1.407195 A    
C110  C118  1.389295 A    
C18   C36   1.405361 A    
O22   Zn6   2.016522 S    
O30   C6    1.294251 A    
N1    O49   1.301064 A    
C34   C36   1.410276 A    
H14   C93   1.083095 S    
C135  C143  1.401859 A    
C22   C40   1.406844 A    
C115  C150  1.446125 S    
O18   C10   1.302317 A    
N5    O57   1.301043 A    
C38   C40   1.410443 A    
C35   C44   1.410815 A    
C63   O67   1.392861 S    
C179  H88   1.111649 S    
C71   H3    1.077193 S    
C170  H66   1.109330 S    
O47   C153  1.256238 A    
O2    Zn2   2.019271 S    
C19   C27   1.415350 A    
C45   C53   1.434772 A    
C22   C71   1.402112 A    
N6    O59   1.300991 A    
C47   C55   1.434932 A    
O6    C6    1.253741 A    
C122  N14   1.439582 S    
C32   N1    1.436620 S    
O41   C151  1.262361 A    
C108  C148  1.399438 A    
C79   C87   1.406359 A    
C158  H35   1.111440 S    
C62   O66   1.387228 S    
C139  H31   1.083694 S    
C46   C66   1.405726 A    
O34   Zn12  1.982829 S    
C105  C113  1.424155 A    
H13   C94   1.083046 S    
O20   C12   1.302734 A    
O45   C155  1.255802 A    
O21   C13   1.303042 A    
C174  H76   1.109154 S    
C121  N13   1.439690 S    
C41   C65   1.419531 A    
H16   C95   1.083127 S    
O23   C15   1.303072 A    
C92   C100  1.401159 A    
C2    C126  1.449391 S    
C180  H92   1.110666 S    
O17   Zn1   2.016522 S    
C162  H45   1.105646 S    
C175  H79   1.115411 S    
O3    C3    1.259239 A    
O67   C161  1.413235 S    
C25   N8    1.437106 S    
O36   C152  1.228661 A    
C20   C28   1.414584 A    
C101  C141  1.407029 A    
C176  H82   1.110681 S    
C173  H74   1.113221 S    
C88   C96   1.403379 A    
C175  C176  1.521113 S    
C103  C111  1.426854 A    
C104  C112  1.429690 A    
C3    C127  1.456404 S    
C4    C128  1.448624 S    
C24   C38   1.406718 A    
C122  C130  1.380628 A    
C34   C44   1.409633 A    
N15   O90   1.300536 A    
C120  N12   1.440021 S    
C39   C42   1.410590 A    
N7    O61   1.301077 A    
C173  C174  1.519455 S    
C101  O69   1.386030 S    
C159  H39   1.116677 S    
C78   C97   1.408097 A    
C104  C144  1.405666 A    
N4    O55   1.301094 A    
C50   C68   1.405907 A    
C88   H20   1.083267 S    
C91   C99   1.400176 A    
C48   C65   1.405753 A    
C123  N15   1.439865 S    
C24   C69   1.402069 A    
C21   C39   1.406705 A    
C136  C144  1.398804 A    
N10   O80   1.300660 A    
C169  H63   1.114476 S    
C157  H34   1.115375 S    
C42   C66   1.419928 A    
O12   Zn7   2.099152 S    
C26   N7    1.436905 S    
O13   Zn2   2.097541 S    
O41   Zn11  1.999589 S    
C83   C147  1.486527 S    
C73   H5    1.077236 S    
C159  C160  1.526298 S    
C177  H83   1.114832 S    
C158  H37   1.111440 S    
C51   C59   1.433798 A    
C21   C72   1.401832 A    
C80   C99   1.408585 A    
C107  C147  1.399384 A    
O25   C1    1.291577 A    
N9    O78   1.300363 A    
C111  C154  1.454830 S    
C105  C145  1.399832 A    
C48   C56   1.434722 A    
O10   C10   1.259352 A    
C157  C158  1.520758 S    
C133  H25   1.083510 S    
C77   C98   1.407587 A    
O75   C177  1.412009 S    
C69   H1    1.076894 S    
O14   C14   1.256349 A    
C90   C98   1.400146 A    
H11   C100  1.077961 S    
C171  H69   1.109268 S    
C140  C148  1.393617 A    
C81   C89   1.400560 A    
C86   C94   1.402812 A    
C162  H47   1.110909 S    
C23   C37   1.407232 A    
C166  H57   1.110429 S    
C115  C123  1.387177 A    
C167  H59   1.109301 S    
C130  C138  1.416800 A    
C113  C121  1.388806 A    
C161  H43   1.109495 S    
O72   C171  1.418638 S    
C168  H61   1.110302 S    
O10   Zn5   2.097541 S    
C116  C124  1.398805 A    
C117  C125  1.387000 A    
C25   C27   1.411385 A    
C171  C172  1.521210 S    
C165  H54   1.110334 S    
C15   C56   1.472650 S    
C120  C128  1.373967 A    
H10   C97   1.075751 S    
O47   Zn10  1.998301 S    
C48   C70   1.414422 A    
C108  C116  1.429742 A    
C167  C168  1.521070 S    
C172  H71   1.110224 S    
C59   C64   1.390748 A    
C109  C117  1.388208 A    
C178  H86   1.109105 S    
C56   C61   1.390812 A    
C84   C92   1.401831 A    
C163  H49   1.115396 S    
O19   C11   1.302274 A    
O38   Zn10  1.982829 S    
C164  H51   1.110756 S    
C165  C166  1.521979 S    
C85   H17   1.082996 S    
C124  N16   1.454221 S    
O25   Zn6   2.071767 S    
O3    Zn3   2.016476 S    
O27   Zn8   2.071383 S    
C166  H55   1.110668 S    
C60   C63   1.399708 A    
C6    C130  1.448310 S    
C163  C164  1.520738 S    
O32   Zn3   2.071383 S    
C160  H40   1.110189 S    
C78   C86   1.406729 A    
C37   C41   1.410357 A    
O24   C16   1.303583 A    
C49   C67   1.402891 A    
O15   Zn4   2.099152 S    
C11   C60   1.476533 S    
O22   C14   1.302901 A    
C83   C96   1.405495 A    
N12   O84   1.300636 A    
C177  C178  1.518845 S    
C31   N2    1.436870 S    
C133  C141  1.401574 A    
O18   Zn2   2.016522 S    
N2    O52   1.300500 A    
C76   H8    1.077291 S    
O48   Zn9   1.998302 S    
C17   C25   1.415556 A    
C45   C71   1.414019 A    
C30   N3    1.436612 S    
C87   C95   1.402747 A    
N16   O91   1.301218 A    
C47   C69   1.414097 A    
C77   C85   1.406461 A    
C78   C142  1.496329 S    
O43   C149  1.266218 A    
C105  O73   1.383740 S    
C86   H18   1.083171 S    
C80   C88   1.407250 A    
O46   Zn10  1.999591 S    
N7    O62   1.301315 A    
C109  C156  1.455460 S    
C17   C35   1.406671 A    
O70   C167  1.418597 S    
C179  H89   1.115266 S    
C19   C74   1.403127 A    
C44   C68   1.419539 A    
C170  H65   1.110657 S    
O38   C154  1.233203 A    
O28   C4    1.298653 A    
N6    O60   1.301296 A    
O69   C165  1.415913 S    
O29   C5    1.291947 A    
N13   O86   1.300576 A    
N8    O63   1.300950 A    
C92   H24   1.083162 S    
C179  C180  1.521065 S    
C26   C28   1.409820 A    
C16   C55   1.473880 S    
O68   C163  1.411498 S    
O42   C152  1.261694 A    
O43   Zn12  1.998301 S    
O15   C15   1.256301 A    
N14   O87   1.302345 A    
O16   C16   1.256444 A    
C27   N6    1.437055 S    
O1    C1    1.259804 A    
C174  H75   1.110913 S    
C14   C53   1.473025 S    
C83   C91   1.400594 A    
C104  O72   1.385458 S    
O4    Zn4   2.016476 S    
O5    Zn5   2.019271 S    
C127  C135  1.416061 A    
C160  H42   1.110221 S    
C180  H91   1.110269 S    
O39   C155  1.227562 A    
O14   Zn1   2.097541 S    
C101  C109  1.426003 A    
C166  H56   1.109389 S    
O48   C154  1.264058 A    
C29   C31   1.409113 A    
C46   C54   1.435492 A    
C18   C26   1.415003 A    
C79   C143  1.497426 S    
O31   C7    1.292772 A    
C64   O68   1.384862 S    
C90   H22   1.083214 S    
O11   C11   1.261878 A    
C138  C146  1.394623 A    
C89   H21   1.083380 S    
O32   C8    1.296800 A    
C176  H81   1.110481 S    
C119  N11   1.437834 S    
O44   C150  1.262244 A    
C61   O65   1.384953 S    
C20   C73   1.402112 A    
C168  H60   1.110659 S    
C138  H30   1.083730 S    
C45   C65   1.406379 A    
C13   C54   1.472937 S    
C28   N5    1.436520 S    
O28   Zn7   2.071383 S    
O26   C2    1.297621 A    
O29   Zn2   2.071767 S    
N11   O82   1.300361 A    
O37   Zn9   1.982828 S    
N1    O50   1.301304 A    
N5    O58   1.301299 A    
O40   Zn9   1.986812 S    
O66   C159  1.416389 S    
O34   C150  1.227310 A    
H12   C99   1.075406 S    
C51   C73   1.413236 A    
C49   C57   1.435111 A    
C118  N10   1.439810 S    
C170  H67   1.110415 S    
C46   C72   1.414857 A    
C52   C67   1.404256 A    
C79   C100  1.408267 A    
C135  H27   1.083462 S    
O65   C157  1.411586 S    
C124  C132  1.393120 A    
C110  C155  1.439509 S    
C102  C142  1.405219 A    
C113  C152  1.447695 S    
C117  N9    1.437638 S    
C177  H84   1.113539 S    
C158  H36   1.110773 S    
C18   C75   1.400629 A    
N3    O53   1.301062 A    
O26   Zn5   2.071767 S    
O42   Zn12  1.999591 S    
C52   C60   1.438176 A    
N9    O77   1.302129 A    
C8    C132  1.458244 S    
C174  H77   1.111324 S    
C21   C29   1.415532 A    
C123  C131  1.383340 A    
C121  C129  1.384530 A    
C40   C41   1.410248 A    
C119  C127  1.386056 A    
O35   Zn12  1.986810 S    
C102  O70   1.385458 S    
O76   C179  1.415194 S    
C139  C147  1.395121 A    
C82   C90   1.401606 A    
O44   Zn11  1.998302 S    
C77   C141  1.495951 S    
C23   C70   1.402193 A    
C137  C145  1.394740 A    
C162  H46   1.110497 S    
O21   Zn5   2.016522 S    
C82   C93   1.405293 A    
C175  H78   1.111650 S    
C47   C66   1.406269 A    
C52   C74   1.415990 A    
C116  C149  1.454493 S    
C58   C64   1.390715 A    
C20   C34   1.407460 A    
C43   C67   1.420978 A    
C161  H44   1.114622 S    
C24   C32   1.414938 A    
H15   C96   1.083222 S    
O17   C9    1.302376 A    
C74   H6    1.077636 S    
O19   Zn3   2.017216 S    
C82   C146  1.486855 S    
C173  H73   1.115245 S    
C9    C58   1.472334 S    
C112  C153  1.438200 S    
C30   C32   1.410051 A    
C106  C146  1.400545 A    
O74   C175  1.415456 S    
O1    Zn1   2.019271 S    
C50   C58   1.434547 A    
C29   N4    1.436655 S    
C80   C144  1.498126 S    
