data_mof_unit_4505.cif
_audit_creation_date              2013-03-05T16:28:56-0500
_audit_creation_method            fapswitch 2.2
_symmetry_space_group_name_H-M    P1
_symmetry_Int_Tables_number       1
_space_group_crystal_system       triclinic
_cell_length_a                    18.228717
_cell_length_b                    18.234505
_cell_length_c                    47.249444
_cell_angle_alpha                 89.999642
_cell_angle_beta                  89.998115
_cell_angle_gamma                 90.603938
_cell_volume                      15704.447286

loop_
_atom_site_label
_atom_site_type_symbol
_atom_site_description
_atom_site_fract_x
_atom_site_fract_y
_atom_site_fract_z
_atom_type_partial_charge
O1    O     O_R   0.999960 0.892740 0.023680 -0.617535
O2    O     O_R   0.107260 0.999960 0.023680 -0.631251
O3    O     O_R   0.000040 0.107260 0.023680 -0.617538
O4    O     O_R   0.892740 0.000040 0.023680 -0.631229
O5    O     O_R   0.999960 0.107260 0.976320 -0.633973
O6    O     O_R   0.107260 0.000040 0.976320 -0.631831
O7    O     O_R   0.000040 0.892740 0.976320 -0.633977
O8    O     O_R   0.892740 0.999960 0.976320 -0.631831
O9    O     O_R   0.499960 0.392740 0.523680 -0.626470
O10   O     O_R   0.607260 0.499960 0.523680 -0.616622
O11   O     O_R   0.500040 0.607260 0.523680 -0.626479
O12   O     O_R   0.392740 0.500040 0.523680 -0.616625
O13   O     O_R   0.499960 0.607260 0.476320 -0.619967
O14   O     O_R   0.607260 0.500040 0.476320 -0.632232
O15   O     O_R   0.500040 0.392740 0.476320 -0.620007
O16   O     O_R   0.392740 0.499960 0.476320 -0.632200
C1    C     C_R   0.000236 0.859054 0.000017 0.923083
C2    C     C_R   0.140947 0.999871 0.999985 0.918416
C3    C     C_R   0.999764 0.140946 0.000017 0.923084
C4    C     C_R   0.859053 0.000131 0.999986 0.918413
C5    C     C_R   0.500189 0.359050 0.500007 0.923733
C6    C     C_R   0.640950 0.499905 0.500011 0.923075
C7    C     C_R   0.499812 0.640950 0.500007 0.923735
C8    C     C_R   0.359050 0.500093 0.500012 0.923087
Zn1   Zn    Zn3+2 1.000000 0.000000 0.031620 0.942935
Zn2   Zn    Zn3+2 0.000000 0.000000 0.968380 0.928438
Zn3   Zn    Zn3+2 0.500000 0.500000 0.531620 0.958234
Zn4   Zn    Zn3+2 0.500000 0.500000 0.468380 0.951754
C9    C     C_1   0.782567 0.000584 0.999925 -0.219213
C10   C     C_1   0.000679 0.782566 0.000107 -0.215728
C11   C     C_1   0.217433 0.999417 0.999922 -0.219202
C12   C     C_1   0.999322 0.217434 0.000107 -0.215789
C13   C     C_1   0.282562 0.500648 0.500075 -0.211118
C14   C     C_1   0.500842 0.282567 0.500048 -0.221692
C15   C     C_1   0.717438 0.499350 0.500074 -0.211108
C16   C     C_1   0.499158 0.717433 0.500047 -0.221657
C17   C     C_1   0.717730 0.000799 0.999911 -0.176060
C18   C     C_1   0.000846 0.717738 0.000141 -0.195754
C19   C     C_1   0.282270 0.999201 0.999908 -0.176029
C20   C     C_1   0.999155 0.282261 0.000140 -0.195798
C21   C     C_1   0.217729 0.500852 0.500098 -0.197910
C22   C     C_1   0.501003 0.217739 0.500094 -0.201349
C23   C     C_1   0.782271 0.499147 0.500097 -0.197866
C24   C     C_1   0.498997 0.782261 0.500094 -0.201399
O17   O     O_R   0.500020 0.060670 0.958090 -0.628116
O18   O     O_R   0.939330 0.500020 0.958090 -0.628301
O19   O     O_R   0.499980 0.939330 0.958090 -0.628116
O20   O     O_R   0.060670 0.499980 0.958090 -0.628297
O21   O     O_R   0.500020 0.939330 0.041910 -0.628559
O22   O     O_R   0.939330 0.499980 0.041910 -0.617068
O23   O     O_R   0.499980 0.060670 0.041910 -0.628531
O24   O     O_R   0.060670 0.500020 0.041910 -0.617053
O25   O     O_R   0.000020 0.560670 0.458090 -0.628872
O26   O     O_R   0.439330 0.000020 0.458090 -0.618526
O27   O     O_R   0.999980 0.439330 0.458090 -0.628800
O28   O     O_R   0.560670 0.999980 0.458090 -0.618505
O29   O     O_R   0.000020 0.439330 0.541910 -0.616864
O30   O     O_R   0.439330 0.999980 0.541910 -0.625613
O31   O     O_R   0.999980 0.560670 0.541910 -0.616863
O32   O     O_R   0.560670 0.000020 0.541910 -0.625610
C25   C     C_R   0.500000 0.000000 0.944596 0.927886
C26   C     C_R   0.000001 0.500000 0.944645 0.929386
C27   C     C_R   0.499997 0.999999 0.055371 0.928756
C28   C     C_R   0.999996 0.499979 0.055539 0.904975
C29   C     C_R   0.999991 0.500002 0.444611 0.928298
C30   C     C_R   0.500001 0.000001 0.444514 0.911599
C31   C     C_R   1.000000 0.500000 0.555553 0.904710
C32   C     C_R   0.499999 1.000000 0.555465 0.925653
O33   O     O_R   0.607320 0.060650 0.000010 -0.627297
O34   O     O_R   0.939350 0.607320 0.000010 -0.620183
O35   O     O_R   0.392680 0.939350 0.000010 -0.627287
O36   O     O_R   0.060650 0.392680 0.000010 -0.620194
O37   O     O_R   0.607320 0.939350 0.999990 -0.619566
O38   O     O_R   0.939350 0.392680 0.999990 -0.621173
O39   O     O_R   0.392680 0.060650 0.999990 -0.619570
O40   O     O_R   0.060650 0.607320 0.999990 -0.621205
O41   O     O_R   0.107320 0.560650 0.500010 -0.617618
O42   O     O_R   0.439350 0.107320 0.500010 -0.615754
O43   O     O_R   0.892680 0.439350 0.500010 -0.617622
O44   O     O_R   0.560650 0.892680 0.500010 -0.615775
O45   O     O_R   0.107320 0.439350 0.499990 -0.622155
O46   O     O_R   0.439350 0.892680 0.499990 -0.620173
O47   O     O_R   0.892680 0.560650 0.499990 -0.622158
O48   O     O_R   0.560650 0.107320 0.499990 -0.620186
C33   C     C_R   0.641256 0.000311 0.999955 0.953851
C34   C     C_R   0.000326 0.641263 0.000056 0.941810
C35   C     C_R   0.358744 0.999689 0.999954 0.953840
C36   C     C_R   0.999674 0.358737 0.000056 0.941798
C37   C     C_R   0.141253 0.500313 0.500031 0.942493
C38   C     C_R   0.500341 0.141260 0.500090 0.946447
C39   C     C_R   0.858747 0.499686 0.500031 0.942460
C40   C     C_R   0.499659 0.858740 0.500090 0.946415
Zn5   Zn    Zn3+2 0.500000 0.080980 0.000000 0.942637
Zn6   Zn    Zn3+2 0.919020 0.500000 0.000000 0.955389
Zn7   Zn    Zn3+2 0.500000 0.919020 0.000000 0.942623
Zn8   Zn    Zn3+2 0.080980 0.500000 0.000000 0.955390
Zn9   Zn    Zn3+2 0.000000 0.580980 0.500000 0.954743
Zn10  Zn    Zn3+2 0.419020 0.000000 0.500000 0.957622
Zn11  Zn    Zn3+2 0.000000 0.419020 0.500000 0.954793
Zn12  Zn    Zn3+2 0.580980 0.000000 0.500000 0.957629
C41   C     C_R   0.004946 0.434968 0.190745 0.621068
C42   C     C_R   0.489590 0.935537 0.190204 0.620724
C43   C     C_R   0.994356 0.564852 0.190718 0.620931
C44   C     C_R   0.510019 0.064578 0.190193 0.620686
C45   C     C_R   0.935641 0.511226 0.810283 0.623433
C46   C     C_R   0.530768 0.057965 0.810034 0.622725
C47   C     C_R   0.064360 0.488773 0.810280 0.623432
C48   C     C_R   0.469229 0.942024 0.810035 0.622717
C49   C     C_R   0.456592 0.950817 0.690314 0.619401
C50   C     C_R   0.065128 0.504276 0.690879 0.617183
C51   C     C_R   0.543399 0.049180 0.690313 0.619402
C52   C     C_R   0.934868 0.495724 0.690881 0.617186
C53   C     C_R   0.527476 0.059544 0.309695 0.621720
C54   C     C_R   0.013725 0.563983 0.310116 0.621522
C55   C     C_R   0.472320 0.940458 0.309704 0.621914
C56   C     C_R   0.985663 0.435968 0.310136 0.621630
N1    N     N_R   0.999720 0.499896 0.176679 -0.313471
N2    N     N_R   0.499849 0.000042 0.176133 -0.313079
N3    N     N_R   0.000001 0.499999 0.824146 -0.312626
N4    N     N_R   0.499999 0.999994 0.823904 -0.315538
N5    N     N_R   0.499996 0.999999 0.676350 -0.324074
N6    N     N_R   0.999997 0.500000 0.676785 -0.312344
N7    N     N_R   0.499941 0.999990 0.323601 -0.312293
N8    N     N_R   0.999753 0.499978 0.324009 -0.311776
C57   C     C_R   0.002413 0.567237 0.220395 -0.070192
C58   C     C_R   0.517998 0.065099 0.219911 -0.070508
C59   C     C_R   0.996684 0.432654 0.220411 -0.070239
C60   C     C_R   0.481452 0.935078 0.219912 -0.070520
C61   C     C_R   0.066696 0.488968 0.780401 -0.068469
C62   C     C_R   0.465440 0.941489 0.780128 -0.067366
C63   C     C_R   0.933304 0.511030 0.780403 -0.068467
C64   C     C_R   0.534556 0.058503 0.780127 -0.067364
C65   C     C_R   0.539616 0.054988 0.720106 -0.069277
C66   C     C_R   0.932900 0.504239 0.720530 -0.070993
C67   C     C_R   0.460377 0.945008 0.720107 -0.069275
C68   C     C_R   0.067097 0.495761 0.720528 -0.070992
C69   C     C_R   0.475130 0.936804 0.279847 -0.068897
C70   C     C_R   0.989037 0.433021 0.280294 -0.068164
C71   C     C_R   0.524347 0.063319 0.279848 -0.069018
C72   C     C_R   0.010051 0.566933 0.280280 -0.068232
C73   C     C_R   0.999547 0.499955 0.235427 -0.031019
C74   C     C_R   0.499733 0.000082 0.234943 -0.030574
C75   C     C_R   1.000000 0.499999 0.765465 -0.026530
C76   C     C_R   0.499998 0.999996 0.765127 -0.026838
C77   C     C_R   0.499997 0.999997 0.735153 -0.034642
C78   C     C_R   0.999999 0.500000 0.735560 -0.029719
C79   C     C_R   0.499740 0.000067 0.264873 -0.026194
C80   C     C_R   0.999546 0.499970 0.265334 -0.026018
C81   C     C_R   0.012727 0.634104 0.235262 -0.056989
C82   C     C_R   0.542654 0.128217 0.234835 -0.056389
C83   C     C_R   0.986108 0.365835 0.235282 -0.056947
C84   C     C_R   0.456522 0.872048 0.234821 -0.056320
C85   C     C_R   0.132889 0.477706 0.765092 -0.059793
C86   C     C_R   0.429054 0.884476 0.764895 -0.059975
C87   C     C_R   0.867110 0.522292 0.765096 -0.059793
C88   C     C_R   0.570942 0.115516 0.764893 -0.059974
C89   C     C_R   0.573955 0.113435 0.735100 -0.056217
C90   C     C_R   0.866669 0.517238 0.735324 -0.057824
C91   C     C_R   0.426039 0.886559 0.735102 -0.056217
C92   C     C_R   0.133328 0.482759 0.735320 -0.057823
C93   C     C_R   0.453133 0.872928 0.264627 -0.060079
C94   C     C_R   0.981200 0.366076 0.265052 -0.060861
C95   C     C_R   0.545999 0.127329 0.264642 -0.059915
C96   C     C_R   0.017581 0.633902 0.265035 -0.060784
O49   O     O_2   0.018629 0.373509 0.175840 -0.530213
O50   O     O_2   0.488085 0.872494 0.175265 -0.531754
O51   O     O_2   0.980749 0.626264 0.175774 -0.530315
O52   O     O_2   0.511595 0.127582 0.175231 -0.531783
O53   O     O_2   0.874569 0.522201 0.825758 -0.539133
O54   O     O_2   0.557877 0.114108 0.825542 -0.538144
O55   O     O_2   0.125434 0.477799 0.825754 -0.539134
O56   O     O_2   0.442118 0.885882 0.825543 -0.538146
O57   O     O_2   0.410445 0.907979 0.675118 -0.529712
O58   O     O_2   0.127188 0.517258 0.676060 -0.539287
O59   O     O_2   0.589547 0.092020 0.675116 -0.529712
O60   O     O_2   0.872807 0.482742 0.676064 -0.539287
O61   O     O_2   0.558100 0.114149 0.325067 -0.538489
O62   O     O_2   0.031379 0.623907 0.325503 -0.540600
O63   O     O_2   0.442000 0.885728 0.325097 -0.538402
O64   O     O_2   0.968258 0.376023 0.325553 -0.540513
C97   C     C_R   0.556297 0.963960 0.868922 0.301600
C98   C     C_R   0.029301 0.560760 0.869136 0.307081
C99   C     C_R   0.443704 0.036033 0.868923 0.301610
C100  C     C_R   0.970704 0.439238 0.869137 0.307077
C101  C     C_R   0.564148 0.020322 0.130963 0.312918
C102  C     C_R   0.057659 0.534720 0.131606 0.305353
C103  C     C_R   0.435678 0.979695 0.130943 0.312916
C104  C     C_R   0.942077 0.465016 0.131560 0.305298
C105  C     C_R   0.058298 0.467450 0.368986 0.301690
C106  C     C_R   0.549652 0.955253 0.368625 0.296879
C107  C     C_R   0.941433 0.532567 0.369019 0.301517
C108  C     C_R   0.450327 0.044757 0.368633 0.296617
C109  C     C_R   0.966151 0.557670 0.631638 0.300037
C110  C     C_R   0.546045 0.951661 0.631281 0.305436
C111  C     C_R   0.033843 0.442329 0.631637 0.300039
C112  C     C_R   0.453947 0.048337 0.631281 0.305436
C113  C     C_R   0.556723 0.964442 0.898678 -0.165484
C114  C     C_R   0.029867 0.560626 0.898879 -0.168129
C115  C     C_R   0.443279 0.035557 0.898679 -0.165489
C116  C     C_R   0.970138 0.439372 0.898880 -0.168128
C117  C     C_R   0.563643 0.022308 0.101203 -0.169679
C118  C     C_R   0.056709 0.536860 0.101879 -0.175366
C119  C     C_R   0.436255 0.977687 0.101184 -0.169633
C120  C     C_R   0.943175 0.462912 0.101835 -0.175359
C121  C     C_R   0.058017 0.466690 0.398718 -0.169408
C122  C     C_R   0.549055 0.954463 0.398357 -0.175422
C123  C     C_R   0.941824 0.533339 0.398750 -0.169271
C124  C     C_R   0.450951 0.045557 0.398363 -0.175250
C125  C     C_R   0.963668 0.556356 0.601917 -0.175279
C126  C     C_R   0.545096 0.950661 0.601555 -0.166303
C127  C     C_R   0.036326 0.443643 0.601916 -0.175280
C128  C     C_R   0.454897 0.049337 0.601556 -0.166304
C129  C     C_R   0.500001 1.000000 0.913551 -0.207239
C130  C     C_R   0.000003 0.499999 0.913697 -0.204393
C131  C     C_R   0.499966 0.999996 0.086354 -0.204034
C132  C     C_R   0.999968 0.499911 0.086828 -0.218082
C133  C     C_R   0.999944 0.500010 0.413586 -0.205952
C134  C     C_R   0.500003 0.000006 0.413304 -0.211426
C135  C     C_R   0.999998 0.499999 0.586884 -0.218245
C136  C     C_R   0.499997 0.999999 0.586625 -0.212009
C137  C     C_R   0.499999 0.999994 0.854248 0.068950
C138  C     C_R   0.000002 0.499999 0.854480 0.065709
C139  C     C_R   0.499894 0.000015 0.145708 0.059158
C140  C     C_R   0.999826 0.499867 0.146288 0.069871
C141  C     C_R   0.999833 0.499999 0.354343 0.069152
C142  C     C_R   0.499976 0.999997 0.353957 0.076127
C143  C     C_R   0.999997 0.500000 0.646372 0.069227
C144  C     C_R   0.499996 0.999999 0.646002 0.064028
C145  C     C_R   0.024021 0.704762 0.220061 0.163965
C146  C     C_R   0.092005 0.721074 0.207428 -0.082594
C147  C     C_R   0.102952 0.788124 0.193612 -0.088804
C148  C     C_R   0.046357 0.839164 0.192417 -0.103620
C149  C     C_R   0.978639 0.823246 0.205002 -0.126569
C150  C     C_R   0.967371 0.756239 0.218791 -0.090980
H1    H     H_    0.136283 0.681994 0.208362 0.148165
H2    H     H_    0.155269 0.800669 0.183853 0.147091
H3    H     H_    0.054990 0.891067 0.181748 0.138762
H4    H     H_    0.934900 0.862854 0.204085 0.142423
H5    H     H_    0.914754 0.744410 0.228509 0.130016
C151  C     C_R   0.570408 0.194433 0.219692 0.164524
C152  C     C_R   0.640661 0.194569 0.207484 -0.089620
C153  C     C_R   0.667307 0.257289 0.193715 -0.088827
C154  C     C_R   0.624195 0.320093 0.192141 -0.091190
C155  C     C_R   0.554264 0.320280 0.204287 -0.133603
C156  C     C_R   0.527309 0.257660 0.218023 -0.090071
H6    H     H_    0.674589 0.146263 0.208706 0.150871
H7    H     H_    0.721351 0.257335 0.184272 0.151957
H8    H     H_    0.644985 0.368607 0.181508 0.156686
H9    H     H_    0.520960 0.368964 0.203067 0.138526
H10   H     H_    0.473094 0.258326 0.227388 0.128561
C157  C     C_R   0.974429 0.295239 0.220077 0.163865
C158  C     C_R   0.906372 0.279329 0.207433 -0.082905
C159  C     C_R   0.895046 0.212345 0.193613 -0.088071
C160  C     C_R   0.951339 0.160971 0.192423 -0.103295
C161  C     C_R   0.019131 0.176491 0.205018 -0.126962
C162  C     C_R   0.030777 0.243431 0.218811 -0.090709
H11   H     H_    0.862324 0.318669 0.208363 0.148140
H12   H     H_    0.842670 0.200110 0.183845 0.147493
H13   H     H_    0.942414 0.109120 0.181751 0.139048
H14   H     H_    0.062637 0.136626 0.204104 0.142199
H15   H     H_    0.083450 0.254953 0.228534 0.129952
C163  C     C_R   0.428295 0.806063 0.219655 0.164147
C164  C     C_R   0.358078 0.806503 0.207426 -0.089489
C165  C     C_R   0.330982 0.744029 0.193620 -0.088019
C166  C     C_R   0.373605 0.680893 0.192033 -0.091001
C167  C     C_R   0.443500 0.680131 0.204199 -0.133827
C168  C     C_R   0.470909 0.742509 0.217968 -0.089873
H16   H     H_    0.324527 0.855073 0.208656 0.151110
H17   H     H_    0.276971 0.744437 0.184158 0.151973
H18   H     H_    0.352464 0.632570 0.181372 0.157351
H19   H     H_    0.476429 0.631193 0.202966 0.138511
H20   H     H_    0.525102 0.741404 0.227340 0.128436
C169  C     C_R   0.201937 0.456092 0.779404 0.180405
C170  C     C_R   0.253607 0.509514 0.787689 -0.084966
C171  C     C_R   0.319573 0.488458 0.800258 -0.134978
C172  C     C_R   0.334291 0.414193 0.804541 -0.103330
C173  C     C_R   0.283023 0.360802 0.796294 -0.104674
C174  C     C_R   0.216991 0.381591 0.783730 -0.106329
H21   H     H_    0.242785 0.567089 0.784238 0.122825
H22   H     H_    0.359418 0.529581 0.806624 0.118852
H23   H     H_    0.385466 0.398016 0.814207 0.134171
H24   H     H_    0.294560 0.303315 0.799557 0.161362
H25   H     H_    0.177802 0.339852 0.777207 0.141575
C175  C     C_R   0.393335 0.821476 0.779538 0.174163
C176  C     C_R   0.432139 0.756342 0.783842 -0.089864
C177  C     C_R   0.398729 0.697302 0.797841 -0.142881
C178  C     C_R   0.326465 0.702892 0.807477 -0.107447
C179  C     C_R   0.287302 0.767338 0.802937 -0.092784
C180  C     C_R   0.320550 0.826588 0.788991 -0.101777
H26   H     H_    0.488198 0.751642 0.776517 0.122662
H27   H     H_    0.429037 0.647411 0.801326 0.121205
H28   H     H_    0.300839 0.657422 0.818536 0.154957
H29   H     H_    0.231306 0.771471 0.810338 0.170485
H30   H     H_    0.289975 0.876458 0.785667 0.144721
C181  C     C_R   0.798062 0.543903 0.779410 0.180404
C182  C     C_R   0.746396 0.490478 0.787699 -0.084958
C183  C     C_R   0.680431 0.511532 0.800270 -0.134974
C184  C     C_R   0.665707 0.585796 0.804552 -0.103332
C185  C     C_R   0.716970 0.639189 0.796300 -0.104675
C186  C     C_R   0.783003 0.618404 0.783735 -0.106332
H31   H     H_    0.757223 0.432904 0.784248 0.122824
H32   H     H_    0.640589 0.470407 0.806638 0.118855
H33   H     H_    0.614532 0.601970 0.814219 0.134172
H34   H     H_    0.705429 0.696676 0.799562 0.161364
H35   H     H_    0.822188 0.660144 0.777209 0.141574
C187  C     C_R   0.606665 0.178514 0.779536 0.174158
C188  C     C_R   0.567864 0.243649 0.783841 -0.089858
C189  C     C_R   0.601277 0.302687 0.797840 -0.142876
C190  C     C_R   0.673539 0.297090 0.807476 -0.107448
C191  C     C_R   0.712699 0.232643 0.802935 -0.092786
C192  C     C_R   0.679448 0.173396 0.788989 -0.101774
H36   H     H_    0.511807 0.248354 0.776516 0.122660
H37   H     H_    0.570971 0.352579 0.801326 0.121204
H38   H     H_    0.699167 0.342558 0.818535 0.154946
H39   H     H_    0.768693 0.228505 0.810336 0.170474
H40   H     H_    0.710020 0.123524 0.785664 0.144724
C193  C     C_R   0.609019 0.176309 0.720081 0.167755
C194  C     C_R   0.685673 0.180741 0.717502 -0.093473
C195  C     C_R   0.718410 0.240566 0.703743 -0.110639
C196  C     C_R   0.674880 0.296060 0.692476 -0.119934
C197  C     C_R   0.598540 0.292086 0.695103 -0.136408
C198  C     C_R   0.565584 0.232483 0.708924 -0.075487
H41   H     H_    0.719802 0.137940 0.726135 0.133115
H42   H     H_    0.777506 0.243872 0.701776 0.154524
H43   H     H_    0.700334 0.342131 0.681718 0.156812
H44   H     H_    0.564908 0.335196 0.686443 0.128781
H45   H     H_    0.506433 0.229989 0.710971 0.148438
C199  C     C_R   0.797610 0.534154 0.719985 0.160708
C200  C     C_R   0.788426 0.603455 0.707609 -0.067823
C201  C     C_R   0.722753 0.620410 0.693925 -0.064710
C202  C     C_R   0.665876 0.568491 0.692646 -0.117809
C203  C     C_R   0.674693 0.499426 0.704951 -0.149366
C204  C     C_R   0.740446 0.482065 0.718508 -0.103008
H46   H     H_    0.831973 0.644229 0.708702 0.162508
H47   H     H_    0.715838 0.673890 0.684412 0.171200
H48   H     H_    0.614937 0.581814 0.682157 0.132259
H49   H     H_    0.630484 0.459445 0.704035 0.124561
H50   H     H_    0.746756 0.428413 0.727980 0.123255
C205  C     C_R   0.390975 0.823686 0.720083 0.167750
C206  C     C_R   0.314320 0.819256 0.717506 -0.093469
C207  C     C_R   0.281583 0.759433 0.703746 -0.110637
C208  C     C_R   0.325113 0.703940 0.692478 -0.119939
C209  C     C_R   0.401453 0.707912 0.695104 -0.136399
C210  C     C_R   0.434409 0.767513 0.708925 -0.075483
H51   H     H_    0.280192 0.862057 0.726140 0.133115
H52   H     H_    0.222488 0.756128 0.701780 0.154523
H53   H     H_    0.299660 0.657871 0.681720 0.156807
H54   H     H_    0.435085 0.664802 0.686442 0.128779
H55   H     H_    0.493561 0.770006 0.710971 0.148437
C211  C     C_R   0.202385 0.465841 0.719978 0.160709
C212  C     C_R   0.211566 0.396538 0.707603 -0.067825
C213  C     C_R   0.277238 0.379581 0.693917 -0.064705
C214  C     C_R   0.334116 0.431497 0.692635 -0.117806
C215  C     C_R   0.325303 0.500564 0.704940 -0.149363
C216  C     C_R   0.259551 0.517928 0.718499 -0.103008
H56   H     H_    0.168018 0.355766 0.708698 0.162509
H57   H     H_    0.284150 0.326101 0.684405 0.171204
H58   H     H_    0.385054 0.418173 0.682145 0.132263
H59   H     H_    0.369513 0.540543 0.704022 0.124557
H60   H     H_    0.253244 0.571580 0.727970 0.123252
C217  C     C_R   0.427600 0.805218 0.279278 0.175136
C218  C     C_R   0.478783 0.755193 0.289876 -0.080879
C219  C     C_R   0.454728 0.690878 0.303224 -0.114258
C220  C     C_R   0.379641 0.676154 0.305995 -0.091939
C221  C     C_R   0.328464 0.725705 0.295413 -0.122946
C222  C     C_R   0.352246 0.790080 0.282033 -0.111459
H61   H     H_    0.537042 0.766107 0.287751 0.147721
H62   H     H_    0.494278 0.652422 0.311398 0.146529
H63   H     H_    0.361110 0.626336 0.316333 0.147963
H64   H     H_    0.270411 0.714175 0.297594 0.137647
H65   H     H_    0.312221 0.828037 0.273805 0.118697
C223  C     C_R   0.967772 0.294903 0.279561 0.177734
C224  C     C_R   0.026674 0.254874 0.290535 -0.076466
C225  C     C_R   0.013894 0.186963 0.303469 -0.113174
C226  C     C_R   0.942472 0.158644 0.305395 -0.100915
C227  C     C_R   0.883683 0.198172 0.294381 -0.125684
C228  C     C_R   0.896212 0.266115 0.281458 -0.116649
H66   H     H_    0.082184 0.276263 0.288993 0.147920
H67   H     H_    0.059355 0.156197 0.311938 0.147946
H68   H     H_    0.932705 0.106010 0.315370 0.135263
H69   H     H_    0.828463 0.176072 0.295793 0.134986
H70   H     H_    0.850492 0.296156 0.272772 0.116309
C229  C     C_R   0.570754 0.195284 0.279323 0.174588
C230  C     C_R   0.518966 0.244354 0.290150 -0.080648
C231  C     C_R   0.542234 0.308901 0.303530 -0.113554
C232  C     C_R   0.617134 0.324830 0.306098 -0.092656
C233  C     C_R   0.668913 0.276243 0.295283 -0.122791
C234  C     C_R   0.645919 0.211623 0.281880 -0.111372
H71   H     H_    0.460841 0.232509 0.288182 0.148579
H72   H     H_    0.502214 0.346607 0.311888 0.147098
H73   H     H_    0.635053 0.374835 0.316456 0.147596
H74   H     H_    0.726821 0.288715 0.297300 0.137545
H75   H     H_    0.686402 0.174416 0.273475 0.118243
C235  C     C_R   0.030360 0.705179 0.279551 0.177389
C236  C     C_R   0.971113 0.744448 0.290664 -0.076549
C237  C     C_R   0.983239 0.812453 0.303612 -0.112327
C238  C     C_R   0.054344 0.841629 0.305412 -0.101298
C239  C     C_R   0.113471 0.802864 0.294259 -0.126114
C240  C     C_R   0.101599 0.734823 0.281325 -0.116346
H76   H     H_    0.915840 0.722394 0.289220 0.148452
H77   H     H_    0.937513 0.842627 0.312190 0.148554
H78   H     H_    0.063601 0.894338 0.315397 0.135023
H79   H     H_    0.168442 0.825629 0.295572 0.134535
H80   H     H_    0.147574 0.705372 0.272536 0.116250
N9    N     N_R   0.612998 0.926940 0.853491 0.216735
O65   O     O_R   0.648512 0.960379 0.833306 -0.392667
O66   O     O_R   0.629091 0.859348 0.859474 -0.378468
N10   N     N_R   0.058246 0.622551 0.853639 0.217061
O67   O     O_R   0.020450 0.651835 0.833281 -0.398140
O68   O     O_R   0.123401 0.648471 0.859274 -0.382823
N11   N     N_R   0.387005 0.073055 0.853493 0.216731
O69   O     O_R   0.351481 0.039612 0.833313 -0.392661
O70   O     O_R   0.370929 0.140654 0.859470 -0.378463
N12   N     N_R   0.941758 0.377447 0.853641 0.217059
O71   O     O_R   0.979554 0.348164 0.833282 -0.398143
O72   O     O_R   0.876602 0.351528 0.859277 -0.382818
N13   N     N_R   0.629870 0.038725 0.146401 0.212636
O73   O     O_R   0.653873 0.995165 0.166067 -0.415604
O74   O     O_R   0.664320 0.100368 0.141647 -0.376261
N14   N     N_R   0.117109 0.568294 0.147115 0.206375
O75   O     O_R   0.151119 0.531658 0.166667 -0.421236
O76   O     O_R   0.135367 0.636490 0.142615 -0.385540
N15   N     N_R   0.369916 0.961308 0.146361 0.212556
O77   O     O_R   0.345848 0.004901 0.166004 -0.415920
O78   O     O_R   0.335474 0.899663 0.141603 -0.376352
N16   N     N_R   0.882541 0.431437 0.147020 0.206383
O79   O     O_R   0.848389 0.468083 0.166535 -0.421447
O80   O     O_R   0.864315 0.363241 0.142506 -0.385265
N17   N     N_R   0.117938 0.435479 0.353489 0.215805
O81   O     O_R   0.149906 0.471784 0.333153 -0.403315
O82   O     O_R   0.139159 0.369144 0.359103 -0.361726
N18   N     N_R   0.600307 0.910464 0.353140 0.212765
O83   O     O_R   0.639752 0.938696 0.332854 -0.401710
O84   O     O_R   0.605260 0.840722 0.358546 -0.363483
N19   N     N_R   0.881747 0.564556 0.353556 0.215628
O85   O     O_R   0.849640 0.528227 0.333259 -0.403649
O86   O     O_R   0.860622 0.630928 0.359161 -0.361998
N20   N     N_R   0.399670 0.089558 0.353155 0.212502
O87   O     O_R   0.360142 0.061316 0.332896 -0.402227
O88   O     O_R   0.394805 0.159319 0.358538 -0.364086
N21   N     N_R   0.934051 0.617341 0.647073 0.209482
O89   O     O_R   0.971572 0.651364 0.666578 -0.410673
O90   O     O_R   0.866385 0.636020 0.642480 -0.371694
N22   N     N_R   0.593982 0.903785 0.646583 0.214879
O91   O     O_R   0.567434 0.856252 0.664472 -0.404886
O92   O     O_R   0.664221 0.905385 0.641727 -0.371861
N23   N     N_R   0.065941 0.382658 0.647073 0.209481
O93   O     O_R   0.028419 0.348635 0.666578 -0.410675
O94   O     O_R   0.133607 0.363978 0.642478 -0.371698
N24   N     N_R   0.406009 0.096213 0.646585 0.214881
O95   O     O_R   0.432555 0.143743 0.664474 -0.404889
O96   O     O_R   0.335771 0.094616 0.641728 -0.371860
C241  C     C_R   0.620358 0.933682 0.913961 0.161388
C242  C     C_R   0.616538 0.863168 0.925830 -0.027194
C243  C     C_R   0.677384 0.834317 0.939820 -0.133670
C244  C     C_R   0.742442 0.875313 0.941747 -0.099094
C245  C     C_R   0.746702 0.945266 0.929717 -0.126928
C246  C     C_R   0.685823 0.974537 0.915928 -0.138661
H81   H     H_    0.566603 0.830734 0.924196 0.135403
H82   H     H_    0.674200 0.780081 0.949071 0.128638
H83   H     H_    0.789549 0.852906 0.952540 0.136370
H84   H     H_    0.797123 0.976889 0.931108 0.160526
H85   H     H_    0.689678 0.028807 0.906692 0.149186
C247  C     C_R   0.056822 0.626487 0.914223 0.154738
C248  C     C_R   0.126760 0.627365 0.926675 -0.036085
C249  C     C_R   0.152946 0.690720 0.940143 -0.140305
C250  C     C_R   0.109917 0.753687 0.940925 -0.102878
C251  C     C_R   0.040416 0.753223 0.928408 -0.116281
C252  C     C_R   0.013775 0.689797 0.915157 -0.128816
H86   H     H_    0.161035 0.579273 0.925743 0.137576
H87   H     H_    0.206781 0.691166 0.949801 0.127670
H88   H     H_    0.130354 0.802789 0.951259 0.137204
H89   H     H_    0.007166 0.802005 0.928953 0.158731
H90   H     H_    0.959998 0.690114 0.905412 0.149436
C253  C     C_R   0.379649 0.066327 0.913962 0.161382
C254  C     C_R   0.383478 0.136844 0.925829 -0.027197
C255  C     C_R   0.322635 0.165706 0.939819 -0.133666
C256  C     C_R   0.257571 0.124719 0.941749 -0.099098
C257  C     C_R   0.253303 0.054764 0.929721 -0.126932
C258  C     C_R   0.314178 0.025481 0.915932 -0.138659
H91   H     H_    0.433417 0.169271 0.924192 0.135403
H92   H     H_    0.325826 0.219943 0.949067 0.128637
H93   H     H_    0.210467 0.147135 0.952542 0.136365
H94   H     H_    0.202877 0.023148 0.931114 0.160533
H95   H     H_    0.310316 0.971209 0.906698 0.149185
C259  C     C_R   0.943180 0.373512 0.914225 0.154736
C260  C     C_R   0.873243 0.372637 0.926679 -0.036076
C261  C     C_R   0.847055 0.309283 0.940148 -0.140307
C262  C     C_R   0.890081 0.246314 0.940929 -0.102888
C263  C     C_R   0.959581 0.246775 0.928410 -0.116268
C264  C     C_R   0.986225 0.310200 0.915158 -0.128817
H96   H     H_    0.838970 0.420730 0.925748 0.137576
H97   H     H_    0.793220 0.308839 0.949809 0.127658
H98   H     H_    0.869643 0.197213 0.951265 0.137196
H99   H     H_    0.992829 0.197991 0.928954 0.158733
H100  H     H_    0.040001 0.309880 0.905411 0.149436
C265  C     C_R   0.631087 0.045095 0.085895 0.149290
C266  C     C_R   0.635817 0.114851 0.073418 -0.046100
C267  C     C_R   0.701325 0.138561 0.060882 -0.138819
C268  C     C_R   0.762724 0.093379 0.061110 -0.097610
C269  C     C_R   0.758296 0.023726 0.073405 -0.112478
C270  C     C_R   0.692635 0.999461 0.085701 -0.120984
H101  H     H_    0.589217 0.151189 0.073821 0.139484
H102  H     H_    0.704671 0.192193 0.051219 0.120801
H103  H     H_    0.813595 0.112257 0.051650 0.141220
H104  H     H_    0.805819 0.988664 0.073528 0.154828
H105  H     H_    0.690032 0.945807 0.095505 0.147208
C271  C     C_R   0.115557 0.577785 0.086746 0.208790
C272  C     C_R   0.099514 0.642999 0.072268 -0.078856
C273  C     C_R   0.154453 0.679827 0.057064 -0.110384
C274  C     C_R   0.225525 0.651832 0.056267 -0.116558
C275  C     C_R   0.242005 0.587479 0.070911 -0.141814
C276  C     C_R   0.187269 0.550478 0.086134 -0.069033
H106  H     H_    0.044413 0.664649 0.072508 0.116025
H107  H     H_    0.141813 0.729714 0.045725 0.123910
H108  H     H_    0.267822 0.679725 0.044208 0.114695
H109  H     H_    0.297093 0.565974 0.070291 0.132684
H110  H     H_    0.200392 0.500181 0.097133 0.136095
C277  C     C_R   0.368845 0.954883 0.085859 0.149266
C278  C     C_R   0.364156 0.885128 0.073379 -0.046101
C279  C     C_R   0.298666 0.861389 0.060838 -0.138906
C280  C     C_R   0.237241 0.906536 0.061067 -0.097656
C281  C     C_R   0.241628 0.976188 0.073365 -0.112374
C282  C     C_R   0.307273 0.000486 0.085662 -0.120884
H111  H     H_    0.410772 0.848811 0.073785 0.139458
H112  H     H_    0.295351 0.807758 0.051172 0.120702
H113  H     H_    0.186382 0.887633 0.051606 0.141171
H114  H     H_    0.194085 0.011222 0.073490 0.154888
H115  H     H_    0.309841 0.054136 0.095470 0.147241
C283  C     C_R   0.884412 0.421981 0.086657 0.208832
C284  C     C_R   0.900550 0.356790 0.072179 -0.079063
C285  C     C_R   0.845703 0.319967 0.056926 -0.110283
C286  C     C_R   0.774631 0.347950 0.056076 -0.116638
C287  C     C_R   0.758053 0.412278 0.070719 -0.141847
C288  C     C_R   0.812696 0.449270 0.085993 -0.068734
H116  H     H_    0.955656 0.335156 0.072457 0.116048
H117  H     H_    0.858417 0.270098 0.045588 0.123925
H118  H     H_    0.732410 0.320067 0.043976 0.114641
H119  H     H_    0.702964 0.433772 0.070059 0.132634
H120  H     H_    0.799502 0.499551 0.096990 0.136087
C289  C     C_R   0.121157 0.435420 0.414106 0.159054
C290  C     C_R   0.115370 0.365837 0.426624 -0.026436
C291  C     C_R   0.174762 0.336787 0.441357 -0.129265
C292  C     C_R   0.240886 0.376112 0.443043 -0.096904
C293  C     C_R   0.247429 0.444802 0.430084 -0.117286
C294  C     C_R   0.187637 0.474668 0.415775 -0.133019
H121  H     H_    0.064694 0.334517 0.425161 0.135296
H122  H     H_    0.169162 0.283847 0.451456 0.112066
H123  H     H_    0.286960 0.353566 0.454431 0.122290
H124  H     H_    0.298653 0.475138 0.431275 0.160611
H125  H     H_    0.193047 0.528157 0.405983 0.146305
C295  C     C_R   0.600011 0.906106 0.413824 0.201106
C296  C     C_R   0.573678 0.841676 0.426733 -0.094134
C297  C     C_R   0.620770 0.798748 0.442977 -0.113629
C298  C     C_R   0.693767 0.820572 0.446803 -0.098739
C299  C     C_R   0.720644 0.883905 0.433561 -0.136556
C300  C     C_R   0.674017 0.926499 0.416965 -0.064651
H126  H     H_    0.516661 0.825386 0.424500 0.127073
H127  H     H_    0.600478 0.749155 0.452954 0.132721
H128  H     H_    0.729251 0.788718 0.460225 0.106290
H129  H     H_    0.777348 0.900444 0.436438 0.126158
H130  H     H_    0.694914 0.976212 0.407185 0.131868
C301  C     C_R   0.878740 0.564634 0.414166 0.158961
C302  C     C_R   0.884604 0.634193 0.426699 -0.026471
C303  C     C_R   0.825253 0.663280 0.441446 -0.129267
C304  C     C_R   0.759084 0.624028 0.443125 -0.096946
C305  C     C_R   0.752459 0.555372 0.430145 -0.117152
C306  C     C_R   0.812215 0.525460 0.415828 -0.132812
H131  H     H_    0.935308 0.665468 0.425236 0.135280
H132  H     H_    0.830917 0.716193 0.451561 0.112000
H133  H     H_    0.713039 0.646605 0.454522 0.122212
H134  H     H_    0.701198 0.525096 0.431326 0.160692
H135  H     H_    0.806738 0.471998 0.406019 0.146382
C307  C     C_R   0.400035 0.093952 0.413834 0.201124
C308  C     C_R   0.426410 0.158394 0.426720 -0.094290
C309  C     C_R   0.379356 0.201372 0.442961 -0.113774
C310  C     C_R   0.306355 0.179585 0.446809 -0.098789
C311  C     C_R   0.279437 0.116236 0.433591 -0.136523
C312  C     C_R   0.326025 0.073593 0.416997 -0.064484
H136  H     H_    0.483430 0.174659 0.424469 0.127115
H137  H     H_    0.399679 0.250979 0.452919 0.132807
H138  H     H_    0.270900 0.211480 0.460229 0.106288
H139  H     H_    0.222730 0.099726 0.436485 0.126145
H140  H     H_    0.305096 0.023872 0.407234 0.131876
C313  C     C_R   0.922953 0.614191 0.586655 0.206993
C314  C     C_R   0.858052 0.596399 0.572032 -0.082195
C315  C     C_R   0.822870 0.649498 0.555761 -0.106268
C316  C     C_R   0.852062 0.720549 0.554095 -0.115070
C317  C     C_R   0.915724 0.739010 0.569084 -0.134348
C318  C     C_R   0.951204 0.686037 0.585340 -0.060072
H141  H     H_    0.835821 0.541106 0.572744 0.116443
H142  H     H_    0.773613 0.635243 0.544121 0.122550
H143  H     H_    0.825719 0.761167 0.541019 0.109316
H144  H     H_    0.938119 0.794113 0.567797 0.133654
H145  H     H_    0.001380 0.700433 0.596390 0.137242
C319  C     C_R   0.585827 0.893116 0.586260 0.171832
C320  C     C_R   0.657022 0.906948 0.576153 -0.012231
C321  C     C_R   0.693341 0.853643 0.560357 -0.130290
C322  C     C_R   0.659162 0.786088 0.554893 -0.093821
C323  C     C_R   0.588852 0.771561 0.565405 -0.130972
C324  C     C_R   0.552035 0.825014 0.580943 -0.146185
H146  H     H_    0.683606 0.959372 0.580067 0.136006
H147  H     H_    0.747711 0.865048 0.552195 0.113732
H148  H     H_    0.686893 0.745082 0.542431 0.114315
H149  H     H_    0.562566 0.719183 0.561247 0.156468
H150  H     H_    0.497058 0.813720 0.588597 0.146989
C325  C     C_R   0.077043 0.385807 0.586654 0.206993
C326  C     C_R   0.141945 0.403598 0.572032 -0.082191
C327  C     C_R   0.177129 0.350498 0.555761 -0.106274
C328  C     C_R   0.147936 0.279447 0.554095 -0.115065
C329  C     C_R   0.084272 0.260988 0.569084 -0.134345
C330  C     C_R   0.048790 0.313962 0.585340 -0.060076
H151  H     H_    0.164177 0.458890 0.572743 0.116446
H152  H     H_    0.226389 0.364752 0.544120 0.122550
H153  H     H_    0.174281 0.238828 0.541019 0.109326
H154  H     H_    0.061877 0.205885 0.567798 0.133656
H155  H     H_    0.998613 0.299567 0.596391 0.137241
C331  C     C_R   0.414168 0.106882 0.586261 0.171831
C332  C     C_R   0.342975 0.093050 0.576154 -0.012237
C333  C     C_R   0.306658 0.146355 0.560358 -0.130288
C334  C     C_R   0.340836 0.213911 0.554895 -0.093807
C335  C     C_R   0.411144 0.228439 0.565407 -0.130978
C336  C     C_R   0.447960 0.174985 0.580944 -0.146191
H156  H     H_    0.316391 0.040626 0.580067 0.136005
H157  H     H_    0.252289 0.134950 0.552196 0.113734
H158  H     H_    0.313107 0.254918 0.542432 0.114322
H159  H     H_    0.437430 0.280817 0.561249 0.156469
H160  H     H_    0.502935 0.186280 0.588599 0.146992

loop_
_geom_bond_atom_site_label_1
_geom_bond_atom_site_label_2
_geom_bond_distance
_ccdc_geom_bond_type
C64   C76   1.422375 A    
C53   O61   1.348660 S    
C156  H10   1.082993 S    
C112  C144  1.407440 A    
C244  H83   1.082484 S    
N11   O70   1.301023 A    
O8    Zn2   1.990861 S    
C296  C297  1.397465 A    
C48   N4    1.359741 A    
C86   C175  1.485451 S    
C284  C285  1.398469 A    
C14   C22   1.182147 T    
C19   C35   1.393957 S    
C47   C61   1.412415 A    
C108  N20   1.439035 S    
C93   C217  1.485972 S    
C45   C63   1.412419 A    
C47   O55   1.348610 S    
C317  C318  1.398011 A    
C46   C64   1.414835 A    
C82   C95   1.409767 A    
C227  C228  1.397843 A    
O41   C37   1.267839 A    
C165  H17   1.081419 S    
C45   O53   1.348607 S    
C194  H41   1.082958 S    
O18   C26   1.275413 A    
C220  C221  1.398029 A    
C119  C131  1.412542 A    
N14   O75   1.301081 A    
C32   C136  1.472312 S    
O33   Zn5   1.994955 S    
C208  H53   1.082193 S    
N17   O81   1.301125 A    
C290  C291  1.396230 A    
C49   O57   1.348895 S    
O35   Zn7   1.994957 S    
C331  C332  1.403204 A    
C328  H153  1.080905 S    
C329  C330  1.398010 A    
C155  C156  1.398067 A    
C10   C18   1.182138 T    
C170  C171  1.398517 A    
C313  C314  1.405063 A    
C145  C150  1.404110 A    
C335  C336  1.397585 A    
C274  H108  1.081437 S    
C159  H12   1.081600 S    
C106  C122  1.404949 A    
C232  H73   1.082296 S    
C247  C248  1.404045 A    
C282  H115  1.083065 S    
C183  H32   1.081118 S    
O3    C3    1.275735 A    
C336  H160  1.083130 S    
C56   C70   1.412428 A    
C24   C40   1.394480 S    
C304  H133  1.082237 S    
C127  C325  1.483091 S    
C107  C141  1.407154 A    
C305  H134  1.081724 S    
C87   C90   1.409739 A    
N12   O72   1.301182 A    
C1    C10   1.394823 S    
C26   C130  1.462266 S    
C43   N1    1.361959 A    
C3    C12   1.394825 S    
O27   C29   1.276532 A    
C271  C276  1.404027 A    
C285  H117  1.082607 S    
C66   C78   1.417181 A    
C123  C133  1.413097 A    
C55   N7    1.360726 A    
C201  C202  1.397919 A    
O12   Zn3   1.990900 S    
C97   C137  1.407078 A    
C276  H110  1.083101 S    
O48   Zn12  1.995542 S    
C157  C158  1.404510 A    
C319  C320  1.403202 A    
C155  H9    1.082277 S    
C208  C209  1.398223 A    
O45   Zn11  1.987277 S    
O10   C6    1.275864 A    
C283  C288  1.404033 A    
C333  H157  1.081614 S    
O44   C40   1.266719 A    
C166  H18   1.082376 S    
N23   O94   1.301319 A    
C199  C204  1.404274 A    
C8    C13   1.394432 S    
C281  H114  1.082076 S    
C311  H139  1.082257 S    
C334  C335  1.397243 A    
O11   Zn3   1.991478 S    
C207  H52   1.082286 S    
C104  N16   1.439521 S    
C275  C276  1.397810 A    
C187  C188  1.403565 A    
C259  C264  1.403388 A    
C70   C94   1.423195 A    
C57   C81   1.417971 A    
C238  H78   1.082297 S    
C61   C75   1.421928 A    
C177  H27   1.081937 S    
C216  H60   1.083030 S    
C182  C183  1.398515 A    
N10   O68   1.301182 A    
C191  H39   1.082333 S    
C314  H141  1.083178 S    
C56   O64   1.348585 S    
C151  C156  1.404186 A    
C89   C193  1.486967 S    
C16   C24   1.182147 T    
C65   C77   1.420267 A    
C184  C185  1.397825 A    
O37   Zn7   1.987277 S    
C229  C230  1.404030 A    
C114  C130  1.412784 A    
N15   O77   1.301176 A    
C63   C75   1.421929 A    
O39   Zn5   1.987279 S    
O43   Zn11  1.994957 S    
C210  H55   1.083056 S    
C175  C176  1.403566 A    
O20   Zn8   2.014552 S    
C96   C235  1.485787 S    
C169  C174  1.403720 A    
C52   C66   1.409979 A    
C76   C77   1.416274 A    
O32   Zn12  2.014525 S    
C226  C227  1.398233 A    
O47   C39   1.266432 A    
C293  H124  1.081736 S    
C111  C143  1.408854 A    
C321  H147  1.081614 S    
O25   Zn9   2.014565 S    
C309  C310  1.396604 A    
C20   C36   1.394433 S    
C171  H22   1.081118 S    
C41   N1    1.361937 A    
C228  H70   1.082918 S    
N9    O65   1.300820 A    
O40   Zn8   1.995542 S    
C69   C93   1.422949 A    
C49   N5    1.360371 A    
C157  C162  1.404112 A    
C160  H13   1.082337 S    
O28   C30   1.278492 A    
C255  H92   1.082219 S    
O11   C7    1.276161 A    
C261  C262  1.397808 A    
C254  H91   1.083025 S    
C232  C233  1.398047 A    
C123  C301  1.480665 S    
C225  H67   1.082317 S    
C262  H98   1.082507 S    
C211  C212  1.404026 A    
C111  N23   1.439301 S    
C189  H37   1.081935 S    
C114  C247  1.482190 S    
C112  C128  1.404735 A    
C323  C324  1.397587 A    
C7    C16   1.394813 S    
C101  C139  1.408952 A    
C242  H81   1.083026 S    
C291  H122  1.080693 S    
C85   C169  1.485737 S    
C2    C11   1.394356 S    
C221  C222  1.398123 A    
C222  H65   1.083129 S    
C68   C78   1.417178 A    
C249  H87   1.082247 S    
C158  C159  1.398417 A    
N19   O86   1.301153 A    
C186  H35   1.083089 S    
C21   C37   1.394000 S    
C173  H24   1.082344 S    
C43   O51   1.349038 S    
C204  H50   1.083033 S    
C49   C67   1.413424 A    
C219  H62   1.082284 S    
C50   C68   1.409982 A    
C212  C213  1.398074 A    
O30   Zn10  2.014549 S    
O17   Zn5   2.014565 S    
O4    Zn1   1.990900 S    
C303  C304  1.398287 A    
C333  C334  1.398587 A    
C113  C241  1.481654 S    
C121  C133  1.413079 A    
C330  H155  1.083076 S    
C194  C195  1.398213 A    
O7    Zn2   1.991495 S    
C290  H121  1.083121 S    
C18   C34   1.394433 S    
C256  H93   1.082483 S    
C283  C284  1.405321 A    
C42   C60   1.411495 A    
C167  H19   1.082270 S    
C159  C160  1.397830 A    
C218  C219  1.398035 A    
C101  C117  1.406614 A    
C310  H138  1.079790 S    
O29   Zn11  2.014559 S    
O19   Zn7   2.014561 S    
C105  N17   1.439174 S    
C268  C269  1.398210 A    
O13   C7    1.276724 A    
C312  H140  1.083080 S    
C59   C73   1.418014 A    
O17   C25   1.276872 A    
C229  C234  1.404320 A    
C98   N10   1.439280 S    
O31   C31   1.280394 A    
C124  C307  1.480436 S    
C193  C198  1.403963 A    
C60   C84   1.418697 A    
C55   C69   1.413243 A    
C70   C80   1.421861 A    
C244  C245  1.397886 A    
C54   O62   1.348603 S    
C116  C130  1.412788 A    
C313  C318  1.403973 A    
C53   C71   1.413106 A    
O41   Zn9   1.994955 S    
C242  C243  1.398682 A    
C54   C72   1.412359 A    
C15   C23   1.181862 T    
C202  H48   1.082395 S    
C48   C62   1.414840 A    
C84   C93   1.409726 A    
C302  C303  1.396225 A    
C205  C210  1.403963 A    
C42   O50   1.348997 S    
C173  C174  1.398076 A    
C213  H57   1.082336 S    
C46   O54   1.348514 S    
C259  C260  1.404047 A    
O48   C38   1.267270 A    
C272  H106  1.083146 S    
N13   O74   1.301305 A    
C145  C146  1.404520 A    
C293  C294  1.397930 A    
C331  C336  1.403038 A    
C50   O58   1.349196 S    
C223  C228  1.403819 A    
C170  H21   1.082621 S    
C125  C135  1.418959 A    
N23   O93   1.301192 A    
C203  C204  1.398306 A    
C109  C143  1.408852 A    
C235  C236  1.403955 A    
C163  C168  1.404184 A    
C257  H94   1.081866 S    
O22   Zn6   2.014549 S    
C309  H137  1.081566 S    
C104  C120  1.405190 A    
O21   Zn7   2.014559 S    
O5    Zn2   1.991498 S    
N22   O91   1.300378 A    
C22   C38   1.394480 S    
O4    C4    1.276895 A    
C220  H63   1.082311 S    
C118  C271  1.483890 S    
C289  C290  1.402851 A    
C110  C126  1.404732 A    
C236  H76   1.083053 S    
C152  H6    1.083140 S    
O20   C26   1.275419 A    
C291  C292  1.398291 A    
O18   Zn6   2.014528 S    
C200  H46   1.083111 S    
C326  C327  1.397484 A    
C62   C86   1.422760 A    
C81   C96   1.409539 A    
C107  C123  1.404861 A    
C285  C286  1.397997 A    
O37   C33   1.266428 A    
C147  H2    1.081581 S    
O23   Zn5   2.014555 S    
C334  H158  1.081358 S    
O39   C35   1.266425 A    
C52   O60   1.349197 S    
C154  H8    1.082366 S    
C174  H25   1.083091 S    
C48   O56   1.348513 S    
C279  H112  1.080437 S    
O47   Zn9   1.987279 S    
C148  H3    1.082338 S    
C119  C277  1.482056 S    
C319  C324  1.403037 A    
C274  C275  1.397623 A    
O33   C33   1.267908 A    
C84   C163  1.487607 S    
C245  C246  1.397648 A    
C102  C140  1.407945 A    
C308  H136  1.083097 S    
C66   C90   1.417168 A    
C287  C288  1.397813 A    
C74   C79   1.414148 A    
C199  C200  1.404026 A    
C203  H49   1.081850 S    
C281  C282  1.398093 A    
C163  C164  1.404469 A    
O26   C30   1.278501 A    
C72   C96   1.423160 A    
C127  C135  1.418958 A    
O12   C8    1.275875 A    
O1    C1    1.275733 A    
C187  C192  1.403961 A    
C201  H47   1.082339 S    
C102  N14   1.439524 S    
O14   C6    1.276816 A    
C85   C92   1.409742 A    
N14   O76   1.301364 A    
C165  C166  1.397681 A    
C120  C283  1.483909 S    
C86   C91   1.409286 A    
C238  C239  1.398226 A    
C61   C85   1.423551 A    
C58   C82   1.418821 A    
O6    Zn2   1.990883 S    
C103  C139  1.408952 A    
C211  C216  1.404272 A    
C151  C152  1.404497 A    
C64   C88   1.422759 A    
C329  H154  1.082261 S    
C65   C89   1.419696 A    
C263  H99   1.081950 S    
C256  C257  1.397888 A    
C43   C57   1.410506 A    
C280  C281  1.398207 A    
C308  C309  1.397465 A    
C68   C92   1.417168 A    
C172  C173  1.397825 A    
C267  H102  1.080428 S    
C206  H51   1.082958 S    
O27   Zn11  2.014561 S    
C260  C261  1.398492 A    
C178  H28   1.081904 S    
N1    C140  1.435959 S    
C100  N12   1.439281 S    
C128  C331  1.480183 S    
C162  H15   1.083001 S    
C121  C289  1.480646 S    
C271  C272  1.405330 A    
O34   C34   1.266505 A    
O10   Zn3   1.990874 S    
C75   C78   1.412980 A    
C286  H118  1.081445 S    
C278  H111  1.082979 S    
C217  C222  1.404268 A    
O46   Zn10  1.995544 S    
C264  H100  1.083130 S    
O38   Zn6   1.995544 S    
C90   C199  1.487747 S    
C257  C258  1.397648 A    
C269  H104  1.082079 S    
C214  C215  1.397921 A    
C117  C265  1.482038 S    
C164  C165  1.398348 A    
N15   O78   1.301301 A    
C149  H4    1.082291 S    
O42   C38   1.266720 A    
C247  C252  1.403389 A    
C62   C76   1.422374 A    
O34   Zn6   1.987866 S    
C100  C116  1.405380 A    
C235  C240  1.403841 A    
C272  C273  1.398465 A    
O36   Zn8   1.987868 S    
C109  N21   1.439299 S    
N21   O90   1.301321 A    
O2    C2    1.276896 A    
N16   O79   1.301181 A    
C27   C131  1.463911 S    
C154  C155  1.398001 A    
C103  C119  1.406600 A    
O46   C40   1.267270 A    
C183  C184  1.397990 A    
C110  C144  1.407439 A    
C324  H150  1.083129 S    
N20   O87   1.301103 A    
C102  C118  1.405257 A    
C253  C258  1.403191 A    
C304  C305  1.398142 A    
C318  H145  1.083078 S    
C325  C326  1.405061 A    
C105  C121  1.404921 A    
C67   C77   1.420267 A    
C219  C220  1.398178 A    
O13   Zn4   1.991498 S    
C260  H96   1.082991 S    
C327  H152  1.082309 S    
C270  H105  1.083064 S    
O45   C37   1.266427 A    
C295  C300  1.403440 A    
N18   O84   1.301176 A    
C250  H88   1.082510 S    
C97   C113  1.406008 A    
C243  C244  1.398163 A    
C106  C142  1.407682 A    
C286  C287  1.397620 A    
C248  H86   1.082990 S    
C164  H16   1.083139 S    
C185  H34   1.082346 S    
C47   N3    1.361060 A    
C254  C255  1.398680 A    
C158  H11   1.083212 S    
C327  C328  1.397627 A    
C44   N2    1.362323 A    
C218  H61   1.083079 S    
C124  C134  1.415439 A    
C240  H80   1.082920 S    
C179  C180  1.398193 A    
C317  H144  1.082262 S    
C98   C138  1.407070 A    
C268  H103  1.082329 S    
C188  C189  1.397699 A    
C25   C129  1.466845 S    
C213  C214  1.397920 A    
O3    Zn1   1.991478 S    
C103  N15   1.439311 S    
C237  C238  1.398478 A    
O24   C28   1.279809 A    
C181  C182  1.403560 A    
C227  H69   1.082365 S    
C83   C157  1.487540 S    
C5    C14   1.394813 S    
C234  H75   1.083117 S    
C320  C321  1.397744 A    
C325  C330  1.403973 A    
C88   C187  1.485458 S    
C289  C294  1.403100 A    
C58   C74   1.418630 A    
C301  C302  1.402854 A    
C87   C181  1.485735 S    
C100  C138  1.407070 A    
C315  C316  1.397626 A    
C176  C177  1.397695 A    
C205  C206  1.404085 A    
C53   N7    1.360681 A    
C99   C137  1.407070 A    
C83   C94   1.409493 A    
O25   C29   1.276483 A    
C153  C154  1.397700 A    
O23   C27   1.276100 A    
C146  H1    1.083214 S    
O8    C4    1.275738 A    
C179  H29   1.082333 S    
C206  C207  1.398212 A    
C41   O49   1.349055 S    
O35   C35   1.267911 A    
C307  C312  1.403440 A    
O30   C32   1.278001 A    
C175  C180  1.403961 A    
C82   C151  1.487566 S    
C246  H85   1.083156 S    
C243  H82   1.082218 S    
C297  C298  1.396607 A    
O40   C34   1.267529 A    
C292  C293  1.398146 A    
C113  C129  1.413299 A    
C299  C300  1.398030 A    
O9    Zn3   1.991485 S    
C231  C232  1.398174 A    
C120  C132  1.419479 A    
C195  H42   1.082288 S    
C56   N8    1.360755 A    
N2    C139  1.437588 S    
C212  H56   1.083111 S    
C122  C295  1.480422 S    
C239  H79   1.082374 S    
C69   C79   1.421851 A    
C266  H101  1.082981 S    
C237  H77   1.082307 S    
O19   C25   1.276870 A    
C236  C237  1.398249 A    
C181  C186  1.403720 A    
O5    C3    1.277108 A    
C320  H146  1.083072 S    
C110  N22   1.436874 S    
C128  C136  1.413675 A    
C223  C224  1.403949 A    
C245  H84   1.081867 S    
C180  H30   1.083013 S    
C197  C198  1.398124 A    
C13   C21   1.181862 T    
C160  C161  1.397870 A    
C63   C87   1.423555 A    
C284  H116  1.083145 S    
C81   C145  1.487512 S    
C30   C134  1.474650 S    
C202  C203  1.397921 A    
C258  H95   1.083157 S    
C50   N6    1.362793 A    
C209  C210  1.398126 A    
O15   Zn4   1.991495 S    
C29   C133  1.465895 S    
C273  H107  1.082610 S    
C71   C95   1.422875 A    
C148  C149  1.397861 A    
C297  H127  1.081567 S    
O2    Zn1   1.990874 S    
C146  C147  1.398420 A    
C195  C196  1.397841 A    
C99   C115  1.406002 A    
C115  C253  1.481651 S    
N10   O67   1.301089 A    
O32   C32   1.277997 A    
C328  C329  1.397656 A    
C191  C192  1.398193 A    
C9    C17   1.181942 T    
N11   O69   1.300819 A    
C306  H135  1.083079 S    
C45   N3    1.361059 A    
O38   C36   1.267533 A    
C230  H71   1.083097 S    
C335  H159  1.082008 S    
C267  C268  1.396772 A    
C302  H131  1.083122 S    
C299  H129  1.082256 S    
O16   Zn4   1.990861 S    
C99   N11   1.438834 S    
C161  H14   1.082294 S    
N4    C137  1.433742 S    
O21   C27   1.276081 A    
C300  H130  1.083080 S    
C51   N5    1.360370 A    
O22   C28   1.279725 A    
C200  C201  1.398075 A    
C98   C114  1.405381 A    
C298  C299  1.397567 A    
C230  C231  1.397997 A    
C72   C80   1.421780 A    
N13   O73   1.301176 A    
C265  C270  1.403901 A    
N7    C142  1.434304 S    
C190  C191  1.397951 A    
C122  C134  1.415472 A    
C97   N9    1.438839 S    
C6    C15   1.394432 S    
C71   C79   1.421718 A    
C307  C308  1.403845 A    
N5    C144  1.433926 S    
C116  C259  1.482192 S    
C51   O59   1.348897 S    
C315  H142  1.082307 S    
C17   C33   1.393959 S    
C88   C89   1.409280 A    
C322  C323  1.397242 A    
C188  H36   1.083148 S    
C280  H113  1.082331 S    
N9    O66   1.301023 A    
C226  H68   1.082291 S    
C177  C178  1.398476 A    
C311  C312  1.398037 A    
C172  H23   1.082428 S    
C215  H59   1.081848 S    
C251  H89   1.081951 S    
C152  C153  1.398364 A    
C166  C167  1.397997 A    
C126  C136  1.413677 A    
N22   O92   1.300781 A    
C265  C266  1.403766 A    
C168  H20   1.082975 S    
C117  C131  1.412541 A    
C275  H109  1.082277 S    
C73   C80   1.413099 A    
C41   C59   1.410375 A    
C225  C226  1.398490 A    
C178  C179  1.397953 A    
C278  C279  1.397424 A    
O42   Zn10  1.987866 S    
C92   C211  1.487744 S    
C332  C333  1.397743 A    
C279  C280  1.396770 A    
C214  H58   1.082391 S    
C42   N2    1.362277 A    
C184  H33   1.082427 S    
C54   N8    1.360728 A    
C108  C142  1.407688 A    
N24   O95   1.300379 A    
C326  H151  1.083179 S    
O16   C8    1.276805 A    
C192  H40   1.083012 S    
O44   Zn12  1.987868 S    
O1    Zn1   1.991485 S    
C108  C124  1.404885 A    
C241  C242  1.403830 A    
O29   C31   1.280397 A    
O36   C36   1.266502 A    
C266  C267  1.397415 A    
C126  C319  1.480186 S    
C4    C9    1.394355 S    
N17   O82   1.301151 A    
C277  C282  1.403906 A    
O6    C2    1.275736 A    
C303  H132  1.080690 S    
C314  C315  1.397488 A    
C94   C223  1.485725 S    
C294  H125  1.083077 S    
C250  C251  1.398124 A    
N8    C141  1.433265 S    
C91   C205  1.486967 S    
C316  C317  1.397655 A    
C255  C256  1.398163 A    
C233  H74   1.081687 S    
C57   C73   1.418095 A    
C253  C254  1.403832 A    
C301  C306  1.403102 A    
C185  C186  1.398075 A    
C51   C65   1.413421 A    
O7    C1    1.277110 A    
N24   O96   1.300781 A    
C196  H43   1.082191 S    
C176  H26   1.083150 S    
N3    C138  1.433293 S    
C23   C39   1.393999 S    
C231  H72   1.082302 S    
C224  H66   1.083046 S    
C52   N6    1.362792 A    
C273  C274  1.398003 A    
C44   O52   1.348976 S    
C67   C91   1.419691 A    
C111  C127  1.405230 A    
C109  C125  1.405233 A    
C198  H45   1.083055 S    
C296  H126  1.083096 S    
C59   C83   1.417885 A    
C248  C249  1.398495 A    
C107  N19   1.439171 S    
C241  C246  1.403194 A    
C292  H123  1.082239 S    
C251  C252  1.397719 A    
C209  H54   1.082315 S    
C221  H64   1.081652 S    
C104  C140  1.407897 A    
C295  C296  1.403851 A    
C171  C172  1.397989 A    
C215  C216  1.398308 A    
C261  H97   1.082248 S    
O31   Zn9   2.014555 S    
C31   C135  1.480358 S    
O28   Zn12  2.014552 S    
C161  C162  1.397946 A    
O9    C5    1.276160 A    
C101  N13   1.439309 S    
C189  C190  1.398476 A    
C149  C150  1.397937 A    
C277  C278  1.403776 A    
C323  H149  1.082007 S    
N18   O83   1.301102 A    
C112  N24   1.436878 S    
C46   N4    1.359742 A    
O43   C39   1.267834 A    
C28   C132  1.478379 S    
C105  C141  1.407189 A    
C298  H128  1.079778 S    
C305  C306  1.397913 A    
C316  H143  1.080906 S    
C125  C313  1.483093 S    
C252  H90   1.083130 S    
C332  H156  1.083071 S    
C217  C218  1.404011 A    
C153  H7    1.081445 S    
C249  C250  1.397808 A    
C287  H119  1.082276 S    
C262  C263  1.398122 A    
C118  C132  1.419429 A    
C196  C197  1.398222 A    
C106  N18   1.439047 S    
C224  C225  1.398259 A    
C190  H38   1.081906 S    
C95   C229  1.486097 S    
C182  H31   1.082622 S    
C288  H120  1.083100 S    
N21   O89   1.301191 A    
N12   O71   1.301088 A    
N16   O80   1.301361 A    
N6    C143  1.436974 S    
C322  H148  1.081355 S    
C321  C322  1.398589 A    
C11   C19   1.181942 T    
C197  H44   1.082313 S    
O24   Zn8   2.014525 S    
C150  H5    1.083002 S    
C12   C20   1.182136 T    
C193  C194  1.404083 A    
N20   O88   1.301175 A    
C115  C129  1.413298 A    
C167  C168  1.398087 A    
N19   O85   1.301122 A    
O15   C5    1.276726 A    
C44   C58   1.411679 A    
C310  C311  1.397574 A    
C263  C264  1.397722 A    
C147  C148  1.397833 A    
C207  C208  1.397842 A    
C239  C240  1.397851 A    
O26   Zn10  2.014528 S    
O14   Zn4   1.990883 S    
C269  C270  1.398106 A    
C60   C74   1.418513 A    
C55   O63   1.348622 S    
C233  C234  1.398129 A    
C169  C170  1.403560 A    
