data_mof_unit_1530.cif
_audit_creation_date              2013-03-05T16:20:28-0500
_audit_creation_method            fapswitch 2.2
_symmetry_space_group_name_H-M    P1
_symmetry_Int_Tables_number       1
_space_group_crystal_system       triclinic
_cell_length_a                    23.536416
_cell_length_b                    29.597274
_cell_length_c                    8.466841
_cell_angle_alpha                 90.0
_cell_angle_beta                  93.319305
_cell_angle_gamma                 90.021265
_cell_volume                      5888.22258937

loop_
_atom_site_label
_atom_site_type_symbol
_atom_site_description
_atom_site_fract_x
_atom_site_fract_y
_atom_site_fract_z
_atom_type_partial_charge
P1    P     P_3+3 0.879620 0.451210 0.061380 0.501807
P2    P     P_3+3 0.879620 0.548790 0.561380 0.500588
P3    P     P_3+3 0.379620 0.951210 0.061380 0.500907
P4    P     P_3+3 0.379620 0.048790 0.561380 0.501862
O1    O     O_2   0.885280 0.436300 0.888260 -0.298082
O2    O     O_2   0.885280 0.563700 0.388260 -0.317107
O3    O     O_2   0.385280 0.936300 0.888260 -0.316553
O4    O     O_2   0.385280 0.063700 0.388260 -0.298083
O5    O     O_3   0.933180 0.477650 0.134870 -0.387589
O6    O     O_3   0.933180 0.522350 0.634870 -0.375391
O7    O     O_3   0.433180 0.977650 0.134870 -0.375232
O8    O     O_3   0.433180 0.022350 0.634870 -0.387359
O9    O     O_3   0.980100 0.397030 0.639600 -0.360374
O10   O     O_3   0.980100 0.602970 0.139600 -0.361528
O11   O     O_3   0.480100 0.897030 0.639600 -0.362464
O12   O     O_3   0.480100 0.102970 0.139600 -0.360390
O13   O     O_2   0.882255 0.368339 0.711029 -0.357056
O14   O     O_2   0.882323 0.631326 0.212365 -0.357326
O15   O     O_2   0.382286 0.868799 0.712841 -0.356127
O16   O     O_2   0.382268 0.131662 0.211122 -0.357100
O17   O     O_3   0.825165 0.491029 0.030927 -0.584843
O18   O     O_3   0.825218 0.508517 0.536716 -0.591889
O19   O     O_3   0.325267 0.991483 0.036774 -0.591650
O20   O     O_3   0.325193 0.008916 0.530903 -0.584721
O21   O     O_3   0.957009 0.303756 0.684865 -0.563585
O22   O     O_3   0.957042 0.696098 0.185486 -0.564925
O23   O     O_3   0.456815 0.803946 0.685609 -0.565377
O24   O     O_3   0.457049 0.196249 0.184920 -0.563556
H1    H     H_    0.042920 0.317257 0.672849 0.125857
H2    H     H_    0.042940 0.682417 0.174487 0.127282
H3    H     H_    0.542772 0.817474 0.674863 0.127175
H4    H     H_    0.542947 0.182782 0.172711 0.125707
C1    C     C_3   0.025679 0.245592 0.651314 -0.012178
C2    C     C_3   0.026015 0.754068 0.151008 -0.013898
C3    C     C_3   0.525539 0.745878 0.650422 -0.014701
C4    C     C_3   0.525730 0.254446 0.151429 -0.012500
H5    H     H_    0.030056 0.239171 0.780857 0.164576
H6    H     H_    0.030386 0.760747 0.280373 0.165209
H7    H     H_    0.529937 0.739078 0.779705 0.164843
H8    H     H_    0.530110 0.260842 0.280987 0.164606
H9    H     H_    0.991478 0.223234 0.599978 0.169129
H10   H     H_    0.991924 0.776398 0.099022 0.168730
H11   H     H_    0.491319 0.723672 0.598291 0.168602
H12   H     H_    0.491540 0.276804 0.100155 0.168992
P5    P     P_3+3 0.120160 0.450850 0.628590 0.523320
P6    P     P_3+3 0.120160 0.549150 0.128590 0.513517
P7    P     P_3+3 0.620160 0.950850 0.628590 0.521872
P8    P     P_3+3 0.620160 0.049150 0.128590 0.521785
P9    P     P_3+3 0.065680 0.352292 0.086574 0.415520
P10   P     P_3+3 0.065838 0.647703 0.586835 0.414724
P11   P     P_3+3 0.565924 0.852380 0.086250 0.415222
P12   P     P_3+3 0.565640 0.147743 0.586717 0.415301
O25   O     O_2   0.114450 0.435960 0.801790 -0.336410
O26   O     O_2   0.114450 0.564040 0.301790 -0.342969
O27   O     O_2   0.614450 0.935960 0.801790 -0.336949
O28   O     O_2   0.614450 0.064040 0.301790 -0.337216
O29   O     O_3   0.019500 0.396970 0.050670 -0.374676
O30   O     O_3   0.019500 0.603030 0.550670 -0.374209
O31   O     O_3   0.519500 0.896970 0.050670 -0.374565
O32   O     O_3   0.519500 0.103030 0.550670 -0.374684
O33   O     O_2   0.114811 0.362764 0.979859 -0.410250
O34   O     O_2   0.115148 0.637248 0.480657 -0.413167
O35   O     O_2   0.614998 0.862958 0.979407 -0.410548
O36   O     O_2   0.614818 0.137295 0.480171 -0.411001
O37   O     O_3   0.179049 0.487026 0.637874 -0.480893
O38   O     O_3   0.179434 0.513352 0.136548 -0.503733
O39   O     O_3   0.679308 0.986791 0.637596 -0.489560
O40   O     O_3   0.679322 0.013261 0.137512 -0.489509
O41   O     O_3   0.033890 0.302828 0.010950 -0.522891
O42   O     O_3   0.034310 0.697192 0.510742 -0.521830
O43   O     O_3   0.534385 0.802844 0.010427 -0.522148
O44   O     O_3   0.533852 0.197174 0.510968 -0.522736
C5    C     C_3   0.983100 0.296453 0.087663 0.462065
C6    C     C_3   0.983848 0.704008 0.588505 0.459576
C7    C     C_3   0.484071 0.795917 0.088785 0.456976
C8    C     C_3   0.483054 0.203531 0.587634 0.462794
H13   H     H_    0.951543 0.322877 0.050036 0.112332
H14   H     H_    0.952038 0.677594 0.552561 0.111032
H15   H     H_    0.452192 0.822316 0.053433 0.110977
H16   H     H_    0.451491 0.177097 0.549967 0.112245
H17   H     H_    0.991107 0.297409 0.218134 0.015302
H18   H     H_    0.992282 0.703424 0.718866 0.017410
H19   H     H_    0.492724 0.796427 0.219068 0.017803
H20   H     H_    0.491040 0.202574 0.718111 0.015096
C9    C     C_3   0.957951 0.250319 0.045449 -0.971411
C10   C     C_3   0.958866 0.750112 0.545250 -0.972534
C11   C     C_3   0.459063 0.749812 0.045455 -0.969968
C12   C     C_3   0.457929 0.249659 0.545426 -0.972392
H21   H     H_    0.943422 0.249079 0.918675 0.272771
H22   H     H_    0.943803 0.750988 0.418840 0.272390
H23   H     H_    0.443720 0.749030 0.919253 0.272020
H24   H     H_    0.443415 0.250902 0.418645 0.272870
H25   H     H_    0.990196 0.223516 0.070925 0.271517
H26   H     H_    0.991383 0.776853 0.568602 0.271874
H27   H     H_    0.491655 0.723101 0.067965 0.271676
H28   H     H_    0.490184 0.276471 0.570947 0.271413
C13   C     C_3   0.164170 0.470583 0.191155 0.345837
C14   C     C_3   0.163233 0.529442 0.694121 0.357303
C15   C     C_3   0.663906 0.970410 0.190860 0.353333
C16   C     C_3   0.663859 0.029629 0.690919 0.353085
H29   H     H_    0.152668 0.473141 0.315702 0.010927
H30   H     H_    0.147240 0.525984 0.813878 -0.003825
H31   H     H_    0.652220 0.972750 0.315274 0.008632
H32   H     H_    0.652203 0.027280 0.815355 0.008643
H33   H     H_    0.127842 0.456168 0.117955 0.080687
H34   H     H_    0.129771 0.544974 0.613532 0.078633
H35   H     H_    0.627677 0.956145 0.116910 0.077856
H36   H     H_    0.627601 0.043850 0.617023 0.077942
C17   C     C_3   0.214749 0.438576 0.179989 0.521774
C18   C     C_3   0.215072 0.560775 0.701764 0.499432
C19   C     C_3   0.714523 0.938451 0.179400 0.525036
C20   C     C_3   0.714427 0.061659 0.679343 0.525344
H37   H     H_    0.202201 0.404452 0.220938 -0.093261
H38   H     H_    0.200689 0.595116 0.735272 -0.072166
H39   H     H_    0.701810 0.904178 0.218448 -0.095504
H40   H     H_    0.701686 0.095903 0.718549 -0.095715
Ba1   Ba    Ba6+2 0.999920 0.468170 0.845000 1.629651
Ba2   Ba    Ba6+2 0.999920 0.531830 0.345000 1.627936
Ba3   Ba    Ba6+2 0.499920 0.968170 0.845000 1.628706
Ba4   Ba    Ba6+2 0.499920 0.031830 0.345000 1.630062
C21   C     C_3   0.799043 0.501035 0.171397 0.787141
C22   C     C_3   0.792176 0.505928 0.669576 0.785896
C23   C     C_3   0.292122 0.993939 0.169445 0.785093
C24   C     C_3   0.298895 0.999033 0.671251 0.785868
H41   H     H_    0.828630 0.494821 0.274272 0.064231
H42   H     H_    0.815867 0.518509 0.776931 0.053979
H43   H     H_    0.315767 0.981372 0.276870 0.053509
H44   H     H_    0.328275 0.005504 0.774435 0.063380
C25   C     C_3   0.745812 0.471929 0.184587 -0.895312
C26   C     C_3   0.738038 0.534091 0.642593 -0.901369
C27   C     C_3   0.238082 0.965658 0.142037 -0.900714
C28   C     C_3   0.245495 0.028004 0.683225 -0.893590
H45   H     H_    0.713826 0.480057 0.087188 0.277925
H46   H     H_    0.711591 0.520871 0.540060 0.265603
H47   H     H_    0.211613 0.978928 0.039652 0.266364
H48   H     H_    0.213530 0.019401 0.586226 0.278000
H49   H     H_    0.726695 0.478291 0.299223 0.242882
H50   H     H_    0.712744 0.532869 0.749274 0.251907
H51   H     H_    0.212766 0.966692 0.248689 0.251437
H52   H     H_    0.226451 0.021985 0.798235 0.242654
H53   H     H_    0.756472 0.435593 0.179004 0.228721
H54   H     H_    0.748570 0.569808 0.620185 0.236806
H55   H     H_    0.248748 0.929993 0.119168 0.236975
H56   H     H_    0.255940 0.064368 0.675934 0.229013
H57   H     H_    0.162564 0.678402 0.288908 0.171779
H58   H     H_    0.161954 0.321981 0.788523 0.173597
H59   H     H_    0.661919 0.178037 0.288668 0.173704
H60   H     H_    0.661947 0.821256 0.788125 0.172709
O45   O     O_3   0.066770 0.522240 0.054830 -0.417045
O46   O     O_3   0.066770 0.477760 0.554830 -0.420138
O47   O     O_3   0.566770 0.022240 0.054830 -0.420147
O48   O     O_3   0.566770 0.977760 0.554830 -0.419847
P13   P     P_3+3 0.930393 0.645250 0.107033 0.455745
P14   P     P_3+3 0.930525 0.354605 0.606152 0.457849
P15   P     P_3+3 0.430542 0.145392 0.106202 0.457859
P16   P     P_3+3 0.430263 0.854827 0.607312 0.455672
C29   C     C_3   0.009285 0.294750 0.618692 0.269012
C30   C     C_3   0.009438 0.704881 0.119530 0.270626
C31   C     C_3   0.509184 0.795130 0.619578 0.271088
C32   C     C_3   0.509310 0.205289 0.118680 0.269282
H61   H     H_    0.006487 0.299611 0.488372 0.030734
H62   H     H_    0.006794 0.699752 0.989327 0.030218
H63   H     H_    0.506598 0.800404 0.489449 0.029540
H64   H     H_    0.506474 0.200461 0.988347 0.030725
H65   H     H_    0.214799 0.658710 0.538370 0.154445
H66   H     H_    0.213145 0.339290 0.041679 0.152709
H67   H     H_    0.713178 0.160697 0.541677 0.152820
H68   H     H_    0.713201 0.839562 0.040354 0.153471
H69   H     H_    0.920678 0.243647 0.116475 0.228122
H70   H     H_    0.921985 0.757195 0.617311 0.228290
H71   H     H_    0.422370 0.742599 0.118099 0.228734
H72   H     H_    0.420652 0.256315 0.616426 0.228160
C33   C     C_R   0.170536 0.633383 0.046929 -0.254676
C34   C     C_R   0.170700 0.366488 0.546293 -0.269162
C35   C     C_R   0.670579 0.133562 0.046384 -0.268450
C36   C     C_R   0.670785 0.866555 0.546586 -0.266601
H73   H     H_    0.204656 0.623992 0.131514 0.190647
H74   H     H_    0.204896 0.375640 0.631050 0.184099
H75   H     H_    0.704804 0.124406 0.131017 0.183584
H76   H     H_    0.704874 0.875779 0.631576 0.184014
C37   C     C_R   0.127213 0.601530 0.012339 0.273206
C38   C     C_R   0.127659 0.398618 0.511506 0.282668
C39   C     C_R   0.627505 0.101438 0.011705 0.285212
C40   C     C_R   0.627606 0.898558 0.511818 0.285232
C41   C     C_R   0.122983 0.685069 0.862566 -0.279427
C42   C     C_R   0.122213 0.314969 0.363005 -0.283229
C43   C     C_R   0.622103 0.185085 0.863211 -0.283260
C44   C     C_R   0.622847 0.815021 0.362268 -0.280549
H77   H     H_    0.112916 0.718378 0.817029 0.179321
H78   H     H_    0.111121 0.281677 0.319116 0.179478
H79   H     H_    0.611070 0.218377 0.819269 0.179509
H80   H     H_    0.612130 0.781722 0.317746 0.179137
C45   C     C_R   0.092394 0.648443 0.796026 0.189269
C46   C     C_R   0.092396 0.351787 0.295502 0.192666
C47   C     C_R   0.592245 0.148269 0.795741 0.192240
C48   C     C_R   0.592729 0.851771 0.295196 0.191306
C49   C     C_R   0.879027 0.316081 0.324823 -0.396440
C50   C     C_R   0.880020 0.684138 0.825084 -0.399819
C51   C     C_R   0.380248 0.815871 0.325202 -0.400295
C52   C     C_R   0.378971 0.183920 0.824983 -0.396276
H81   H     H_    0.894519 0.283507 0.364976 0.141929
H82   H     H_    0.896609 0.716430 0.864584 0.139781
H83   H     H_    0.397413 0.783725 0.364019 0.138884
H84   H     H_    0.394467 0.216498 0.865187 0.141893
C53   C     C_R   0.902883 0.354485 0.399175 0.237515
C54   C     C_R   0.902712 0.645438 0.900163 0.241444
C55   C     C_R   0.402504 0.854669 0.400572 0.242271
C56   C     C_R   0.402846 0.145521 0.899259 0.237533
C57   C     C_R   0.830353 0.364670 0.132523 -0.277445
C58   C     C_R   0.832005 0.636336 0.629423 -0.271209
C59   C     C_R   0.332223 0.863399 0.128877 -0.271000
C60   C     C_R   0.330330 0.135323 0.632551 -0.277320
H85   H     H_    0.798489 0.371875 0.038986 0.177695
H86   H     H_    0.801168 0.629781 0.532932 0.176677
H87   H     H_    0.301537 0.869782 0.031867 0.176677
H88   H     H_    0.298489 0.128113 0.538941 0.177247
C61   C     C_R   0.868439 0.399668 0.179238 0.182190
C62   C     C_R   0.868792 0.600663 0.678582 0.182460
C63   C     C_R   0.368690 0.899287 0.178535 0.180725
C64   C     C_R   0.368410 0.100333 0.679261 0.181663
C65   C     C_R   0.167447 0.677724 0.980338 0.066465
C66   C     C_R   0.166886 0.322037 0.480327 0.068334
C67   C     C_R   0.666785 0.178008 0.980463 0.068123
C68   C     C_R   0.667390 0.822185 0.479935 0.066797
C69   C     C_R   0.090145 0.608433 0.880695 -0.459086
C70   C     C_R   0.090781 0.391953 0.379350 -0.459356
C71   C     C_R   0.590586 0.108108 0.879631 -0.459830
C72   C     C_R   0.590784 0.891838 0.379563 -0.461175
H89   H     H_    0.062085 0.581575 0.837987 0.161271
H90   H     H_    0.063105 0.418988 0.336212 0.159897
H91   H     H_    0.562890 0.081070 0.836497 0.159896
H92   H     H_    0.562959 0.918801 0.336615 0.160065
C73   C     C_R   0.835904 0.320540 0.201623 0.123189
C74   C     C_R   0.837499 0.680299 0.700121 0.125642
C75   C     C_R   0.337844 0.819465 0.199939 0.125720
C76   C     C_R   0.335863 0.179456 0.701721 0.123388
C77   C     C_R   0.900438 0.395470 0.320866 -0.309343
C78   C     C_R   0.899810 0.604446 0.821890 -0.298006
C79   C     C_R   0.399397 0.895667 0.322380 -0.296131
C80   C     C_R   0.400405 0.104544 0.820893 -0.309435
H93   H     H_    0.923460 0.424260 0.370948 0.156677
H94   H     H_    0.921907 0.575364 0.872972 0.154538
H95   H     H_    0.421220 0.924850 0.373739 0.154607
H96   H     H_    0.423437 0.075766 0.870931 0.156607
C81   C     C_R   0.214638 0.749059 0.767069 -0.168725
C82   C     C_R   0.211567 0.248732 0.269102 -0.164961
C83   C     C_R   0.711556 0.251228 0.769091 -0.165001
C84   C     C_R   0.713365 0.749743 0.267690 -0.167711
C85   C     C_R   0.728245 0.286194 0.673259 -0.118384
C86   C     C_R   0.730866 0.715273 0.171113 -0.118737
C87   C     C_R   0.232245 0.783330 0.669836 -0.120224
C88   C     C_R   0.228246 0.213759 0.173321 -0.117994
C89   C     C_R   0.775842 0.310990 0.718989 -0.023363
C90   C     C_R   0.778994 0.691117 0.216360 -0.012294
C91   C     C_R   0.280156 0.807753 0.715290 -0.011575
C92   C     C_R   0.275840 0.188990 0.219074 -0.023616
C93   C     C_R   0.803075 0.303372 0.866688 -0.162148
C94   C     C_R   0.805901 0.698627 0.364673 -0.163789
C95   C     C_R   0.306733 0.800714 0.864340 -0.161842
C96   C     C_R   0.303070 0.196631 0.366764 -0.162439
C97   C     C_R   0.776896 0.277755 0.982528 0.047095
C98   C     C_R   0.779047 0.723575 0.480942 0.045069
C99   C     C_R   0.279770 0.775870 0.980737 0.044737
C100  C     C_R   0.276892 0.222244 0.482578 0.047324
C101  C     C_R   0.234191 0.746160 0.928234 0.128966
C102  C     C_R   0.231737 0.252261 0.429700 0.126777
C103  C     C_R   0.731718 0.247735 0.929702 0.126919
C104  C     C_R   0.733377 0.753170 0.428399 0.127260
C105  C     C_R   0.797109 0.280685 0.144730 -0.067893
C106  C     C_R   0.799139 0.720506 0.643257 -0.068466
C107  C     C_R   0.299790 0.779035 0.143116 -0.068521
C108  C     C_R   0.297086 0.219313 0.644796 -0.067958
C109  C     C_R   0.775388 0.247621 0.250049 0.118713
C110  C     C_R   0.777154 0.753513 0.748602 0.119402
C111  C     C_R   0.278026 0.745839 0.248370 0.119853
C112  C     C_R   0.275372 0.252386 0.750071 0.118579
C113  C     C_R   0.231289 0.717165 0.196397 0.044451
C114  C     C_R   0.229701 0.281962 0.697275 0.040645
C115  C     C_R   0.729680 0.218055 0.197318 0.040764
C116  C     C_R   0.730671 0.782385 0.696310 0.042137
C117  C     C_R   0.210330 0.714936 0.035015 -0.043634
C118  C     C_R   0.208937 0.284314 0.535667 -0.049198
C119  C     C_R   0.708889 0.215708 0.035735 -0.048925
C120  C     C_R   0.709867 0.784705 0.534818 -0.048251
C121  C     C_R   0.796773 0.242408 0.409452 -0.173932
C122  C     C_R   0.799092 0.759571 0.907219 -0.172428
C123  C     C_R   0.300472 0.739262 0.406330 -0.173955
C124  C     C_R   0.296733 0.257604 0.909494 -0.173926
C125  C     C_R   0.282531 0.704059 0.499762 -0.135869
C126  C     C_R   0.279612 0.292864 0.003656 -0.134200
C127  C     C_R   0.779651 0.207141 0.503618 -0.133691
C128  C     C_R   0.781050 0.794545 0.001276 -0.134331
C129  C     C_R   0.232809 0.681746 0.456076 -0.065443
C130  C     C_R   0.231010 0.316445 0.958654 -0.082431
C131  C     C_R   0.731030 0.183553 0.458659 -0.083487
C132  C     C_R   0.731511 0.817004 0.957238 -0.084309
C133  C     C_R   0.204670 0.691753 0.312052 -0.159913
C134  C     C_R   0.203500 0.307757 0.812634 -0.151291
C135  C     C_R   0.703483 0.192258 0.312713 -0.151939
C136  C     C_R   0.703896 0.807682 0.811907 -0.153198
H97   H     H_    0.188302 0.724469 0.707165 0.133480
H98   H     H_    0.185591 0.273323 0.208146 0.133390
H99   H     H_    0.685573 0.226613 0.708184 0.133589
H100  H     H_    0.686794 0.774037 0.207303 0.133694
H101  H     H_    0.213413 0.786771 0.550651 0.147062
H102  H     H_    0.209045 0.209987 0.054661 0.146301
H103  H     H_    0.709047 0.289943 0.554591 0.146323
H104  H     H_    0.711799 0.711510 0.052298 0.147214
H105  H     H_    0.792948 0.333927 0.634931 0.186971
H106  H     H_    0.796565 0.668748 0.131403 0.186908
H107  H     H_    0.297835 0.829945 0.629952 0.185289
H108  H     H_    0.292945 0.166050 0.135051 0.186935
H109  H     H_    0.844241 0.318242 0.892308 0.179831
H110  H     H_    0.847293 0.684142 0.390620 0.179782
H111  H     H_    0.348026 0.815378 0.890554 0.179374
H112  H     H_    0.344232 0.181777 0.392392 0.179804
H113  H     H_    0.823766 0.265672 0.472721 0.138579
H114  H     H_    0.827491 0.737412 0.970295 0.137128
H115  H     H_    0.329348 0.761032 0.469423 0.137193
H116  H     H_    0.323707 0.234344 0.972771 0.138577
H117  H     H_    0.799307 0.202439 0.621358 0.141327
H118  H     H_    0.800953 0.799845 0.118424 0.141218
H119  H     H_    0.302804 0.698359 0.616224 0.141418
H120  H     H_    0.299252 0.297566 0.121420 0.141154
N1    N     N_R   0.263242 0.454750 0.280624 0.248689
O49   O     O_R   0.307128 0.473028 0.218958 -0.264322
O50   O     O_R   0.262922 0.450535 0.433456 -0.354042
N2    N     N_R   0.258241 0.544586 0.819732 0.252674
O51   O     O_R   0.284456 0.506533 0.798889 -0.231804
O52   O     O_R   0.273150 0.569489 0.941749 -0.383439
N3    N     N_R   0.762746 0.954233 0.281881 0.250079
O53   O     O_R   0.806780 0.972869 0.222181 -0.261605
O54   O     O_R   0.762142 0.949135 0.434326 -0.356484
N4    N     N_R   0.762719 0.045923 0.781597 0.250212
O55   O     O_R   0.806802 0.027463 0.721646 -0.261636
O56   O     O_R   0.762139 0.050905 0.934093 -0.356140
O57   O     O_3   0.229148 0.435870 0.021555 -0.667898
H121  H     H_    0.259057 0.412361 0.017125 0.328375
O58   O     O_3   0.237927 0.562878 0.552492 -0.670813
H122  H     H_    0.268783 0.585771 0.560670 0.325064
O59   O     O_3   0.729432 0.936375 0.021259 -0.670008
H123  H     H_    0.759247 0.912804 0.016363 0.326394
O60   O     O_3   0.729249 0.063794 0.521134 -0.670106
H124  H     H_    0.758950 0.087470 0.516120 0.326321
N5    N     N_R   0.782678 0.548798 0.169834 0.247562
O61   O     O_R   0.759289 0.566463 0.290843 -0.417928
O62   O     O_R   0.790163 0.573900 0.046460 -0.414062
N6    N     N_R   0.776247 0.458667 0.693548 0.250290
O63   O     O_R   0.746123 0.447425 0.811424 -0.409759
O64   O     O_R   0.789099 0.427799 0.592090 -0.393021
N7    N     N_R   0.276052 0.041151 0.193562 0.250292
O65   O     O_R   0.245746 0.052262 0.311185 -0.409786
O66   O     O_R   0.288990 0.072108 0.092508 -0.392701
N8    N     N_R   0.282751 0.951209 0.670372 0.247834
O67   O     O_R   0.258650 0.933777 0.790732 -0.417621
O68   O     O_R   0.291105 0.925823 0.548189 -0.412320
O69   O     O_3   0.076497 0.235002 0.581385 -0.727282
H125  H     H_    0.107856 0.245851 0.655169 0.330689
O70   O     O_3   0.076912 0.764397 0.081005 -0.727289
H126  H     H_    0.108193 0.753326 0.154595 0.330247
O71   O     O_3   0.576349 0.735493 0.580114 -0.727535
H127  H     H_    0.607714 0.746408 0.653759 0.330583
O72   O     O_3   0.576551 0.265067 0.081529 -0.727417
H128  H     H_    0.607905 0.254219 0.155292 0.330700

loop_
_geom_bond_atom_site_label_1
_geom_bond_atom_site_label_2
_geom_bond_distance
_ccdc_geom_bond_type
C28   H56   1.106433 S    
C15   H31   1.106194 S    
C48   C72   1.386523 A    
C85   C89   1.375735 A    
O69   H125  0.992255 S    
C11   H23   1.108155 S    
C50   C54   1.400863 A    
C109  C121  1.421296 A    
C106  C110  1.439261 A    
C34   C66   1.430036 A    
C96   C100  1.409305 A    
C111  C123  1.422655 A    
O57   H121  0.992250 S    
C101  C117  1.430116 A    
P8    Ba4   3.496934 S    
O27   Ba3   2.902620 S    
C116  C120  1.427072 A    
C93   C97   1.409286 A    
P6    C37   1.848918 S    
C130  C134  1.386019 A    
C95   C99   1.409511 A    
H57   C133  1.074194 S    
C127  H117  1.083429 S    
C75   C107  1.553966 S    
C80   H96   1.082847 S    
C36   C40   1.408097 A    
C63   C79   1.383934 A    
C2    H10   1.110794 S    
O42   C6    1.405540 S    
C123  C125  1.388541 A    
C115  C119  1.427741 A    
P4    O8    1.580692 S    
C13   H33   1.111566 S    
C52   C56   1.400871 A    
P9    O41   1.748376 S    
C24   N8    1.465353 S    
Ba3   O47   2.804885 S    
C26   H46   1.109709 S    
P11   O43   1.748353 S    
C5    H17   1.110189 S    
C84   C86   1.385087 A    
P5    C38   1.850475 S    
C74   C106  1.553557 S    
H68   C132  1.077979 S    
O3    Ba3   2.901174 S    
C10   H22   1.108126 S    
C39   C71   1.390016 A    
C131  C135  1.386015 A    
C60   C64   1.411319 A    
C37   C69   1.390250 A    
C14   H30   1.106555 S    
C125  C129  1.375419 A    
C42   H78   1.079697 S    
Ba2   O45   3.006682 S    
C127  C131  1.375073 A    
P12   O44   1.748373 S    
C51   C75   1.417658 A    
C11   H71   1.109561 S    
O12   P15   1.726225 S    
C54   C78   1.382230 A    
O39   C16   1.401051 S    
C25   H45   1.110377 S    
H60   C136  1.074277 S    
C116  C136  1.409758 A    
P1    O1    1.543910 D    
C4    H12   1.110793 S    
C62   C78   1.383880 A    
C26   H50   1.110777 S    
C27   H55   1.104793 S    
O38   C13   1.401460 S    
C35   C39   1.408140 A    
O23   P16   1.746590 S    
C99   C101  1.437292 A    
C83   H99   1.064809 S    
O21   P14   1.746506 S    
C84   H100  1.064353 S    
C81   C101  1.417203 A    
O19   C23   1.406136 S    
C94   H110  1.075511 S    
C14   H34   1.111416 S    
C47   C71   1.386406 A    
C57   C61   1.411104 A    
P10   O42   1.748323 S    
C45   C69   1.386832 A    
C4    O72   1.400562 S    
C68   C120  1.546953 S    
N6    O63   1.300497 A    
C59   C75   1.435733 A    
O22   C30   1.407053 S    
C87   H101  1.083228 S    
P3    O7    1.580230 S    
C25   H49   1.109335 S    
P7    O48   1.585341 S    
P8    O47   1.584871 S    
O70   H126  0.992323 S    
P2    C62   1.853737 S    
C35   C67   1.429776 A    
C64   C80   1.384197 A    
Ba1   O45   2.804885 S    
C21   N5    1.465185 S    
C71   H91   1.082018 S    
N7    O65   1.300458 A    
C16   H32   1.106158 S    
C34   C38   1.408351 A    
C114  C134  1.409705 A    
C21   H41   1.098765 S    
O12   Ba4   2.753574 S    
P10   C45   1.843916 S    
O23   C31   1.407102 S    
O24   C32   1.406687 S    
C115  C135  1.409661 A    
C24   C28   1.529937 S    
C19   N3    1.464538 S    
N1    O50   1.300466 A    
P12   O32   1.727539 S    
C9    H25   1.110543 S    
C11   H27   1.110537 S    
C50   H82   1.078130 S    
C110  C122  1.421972 A    
C3    H11   1.110800 S    
C18   H38   1.113347 S    
C97   C105  1.429764 A    
P3    C63   1.855005 S    
C28   H48   1.110692 S    
C83   C103  1.417900 A    
C102  C118  1.431470 A    
C99   C107  1.430356 A    
P5    O25   1.544524 D    
O5    Ba2   2.806914 S    
C94   C98   1.409331 A    
O7    Ba4   2.806914 S    
C60   C76   1.434294 A    
H58   C134  1.073446 S    
O9    P14   1.725962 S    
C16   H36   1.111456 S    
C128  C132  1.374997 A    
C49   C73   1.418846 A    
N4    O55   1.301585 A    
H65   C129  1.078895 S    
C70   H90   1.082023 S    
C19   O59   1.405036 S    
C124  C126  1.387308 A    
P2    O18   1.752642 S    
O8    Ba3   2.807580 S    
C91   H107  1.077619 S    
C23   H43   1.103136 S    
C92   H108  1.078200 S    
C52   H84   1.078862 S    
C15   C19   1.528935 S    
P1    Ba1   3.496433 S    
C5    C9    1.522326 S    
P3    Ba3   3.496433 S    
C7    C11   1.522349 S    
H59   C135  1.073429 S    
P5    O37   1.749289 S    
C1    O69   1.400584 S    
C61   C77   1.384226 A    
C20   H40   1.113127 S    
C125  H119  1.083527 S    
P5    Ba1   3.497245 S    
Ba3   O48   3.006572 S    
Ba4   O47   3.006682 S    
C5    H13   1.112584 S    
C36   C68   1.429752 A    
C126  C130  1.375120 A    
C42   C46   1.400262 A    
H3    C31   1.112734 S    
C8    H16   1.112578 S    
N2    O51   1.301316 A    
C79   H95   1.082954 S    
C41   H77   1.079959 S    
C59   C63   1.413942 A    
C121  C127  1.387254 A    
C122  C128  1.387628 A    
C57   H85   1.080038 S    
C44   H80   1.079760 S    
C65   C117  1.546327 S    
C13   C17   1.528838 S    
O6    Ba1   2.807580 S    
Ba1   Ba2   4.633778 S    
C43   C67   1.419386 A    
C92   C96   1.390206 A    
O11   Ba3   2.753310 S    
C42   C66   1.419493 A    
C26   H54   1.104641 S    
P14   C53   1.833658 S    
C27   H51   1.110716 S    
C89   C93   1.390251 A    
C36   H76   1.081224 S    
P6    O45   1.584871 S    
P11   O31   1.728974 S    
N8    O67   1.301227 A    
O22   P13   1.746576 S    
C41   C65   1.419910 A    
C82   C102  1.417902 A    
C95   H111  1.075594 S    
C86   C90   1.375272 A    
C12   H28   1.110535 S    
C14   C18   1.530657 S    
O16   P15   1.536802 D    
C49   C53   1.400769 A    
C66   C118  1.546855 S    
C33   C65   1.428548 A    
C8    H20   1.110185 S    
P2    Ba2   3.496733 S    
C20   N4    1.464532 S    
C85   H103  1.083261 S    
C86   H104  1.083283 S    
C3    O71   1.400611 S    
C32   H64   1.110889 S    
P7    O27   1.544524 D    
O37   C14   1.400801 S    
P6    O38   1.750336 S    
P3    O3    1.543910 D    
P4    O20   1.749559 S    
C128  H118  1.083509 S    
C25   H53   1.106055 S    
P9    C46   1.842835 S    
C81   H97   1.065083 S    
P6    Ba2   3.496934 S    
P8    O28   1.544551 D    
P5    O46   1.585341 S    
Ba2   O46   2.805552 S    
C23   N7    1.465144 S    
P4    C64   1.850360 S    
O24   P15   1.746504 S    
O72   H128  0.992242 S    
O41   C5    1.405772 S    
N5    O62   1.302060 A    
C34   H74   1.081252 S    
C17   N1    1.464513 S    
C18   O58   1.403305 S    
C55   C79   1.382221 A    
C24   H44   1.099112 S    
C81   C87   1.384752 A    
C33   C37   1.406788 A    
C100  C108  1.429784 A    
C10   H70   1.109586 S    
C51   H83   1.077658 S    
O15   P16   1.536771 D    
P12   C47   1.842848 S    
C22   N6    1.465191 S    
C6    H18   1.110214 S    
O13   P14   1.536768 D    
C1    C29   1.526483 S    
C67   C119  1.546480 S    
C83   C85   1.385745 A    
C121  H113  1.060647 S    
P9    O33   1.539596 D    
P10   O30   1.729661 S    
C123  H115  1.058334 S    
P11   O35   1.539854 D    
C124  H116  1.060641 S    
P15   C56   1.833776 S    
P12   O36   1.539587 D    
C126  H120  1.083425 S    
C9    H21   1.108101 S    
C38   C70   1.389872 A    
H1    C29   1.112785 S    
C76   C108  1.551371 S    
C69   H89   1.082019 S    
C3    H7    1.111889 S    
N3    O53   1.301584 A    
C98   C106  1.430154 A    
C87   C91   1.375272 A    
O58   H122  0.992557 S    
C103  C119  1.431323 A    
C108  C112  1.437712 A    
C96   H112  1.074683 S    
N6    O64   1.301690 A    
P1    O5    1.580230 S    
P8    O40   1.749816 S    
C53   C77   1.382031 A    
C17   O57   1.404767 S    
C16   C20   1.528911 S    
C29   H61   1.110906 S    
C72   H92   1.082025 S    
O29   Ba1   2.755611 S    
C112  C124  1.421257 A    
H66   C130  1.078223 S    
C113  C117  1.427118 A    
O31   Ba3   2.755611 S    
C2    C30   1.526477 S    
C23   C27   1.528821 S    
C21   C25   1.529600 S    
P7    C40   1.850368 S    
P8    C39   1.850374 S    
O9    Ba1   2.753310 S    
Ba3   Ba4   4.633778 S    
N7    O66   1.301641 A    
C77   H93   1.082849 S    
C28   H52   1.109661 S    
C15   H35   1.111453 S    
C88   H102  1.083261 S    
C105  C109  1.437572 A    
C1    H9    1.110811 S    
C46   C70   1.386307 A    
C73   C105  1.550962 S    
C7    H19   1.110176 S    
O32   Ba4   2.755349 S    
N4    O56   1.300408 A    
C58   C74   1.434934 A    
C129  C133  1.385633 A    
N1    O49   1.301608 A    
C9    H69   1.109590 S    
C132  C136  1.385614 A    
C82   H98   1.064750 S    
C100  C102  1.436956 A    
C6    H14   1.112446 S    
O18   C22   1.406175 S    
P1    C61   1.849946 S    
C59   H87   1.078581 S    
O60   H124  0.992253 S    
P1    O17   1.749552 S    
C12   H72   1.109589 S    
P3    O19   1.752421 S    
O20   C24   1.402058 S    
P4    O4    1.543880 D    
C56   C80   1.382038 A    
P9    O29   1.727774 S    
C82   C88   1.385781 A    
O59   H123  0.992253 S    
C107  C111  1.440278 A    
C109  C115  1.437394 A    
C104  C120  1.430834 A    
C110  C116  1.437987 A    
C111  C113  1.437776 A    
C97   C103  1.436802 A    
C27   H47   1.109708 S    
P11   C48   1.843601 S    
C98   C104  1.437324 A    
O25   Ba1   2.902620 S    
C90   C94   1.391091 A    
O30   Ba2   2.755349 S    
P16   C55   1.832610 S    
C10   H26   1.110532 S    
C12   H24   1.108088 S    
O10   Ba2   2.753574 S    
C49   H81   1.078877 S    
Ba1   O46   3.006572 S    
C8    C12   1.522327 S    
C43   H79   1.079715 S    
C2    O70   1.400631 S    
C17   H37   1.113160 S    
C88   C92   1.375745 A    
P7    Ba3   3.497245 S    
O28   Ba4   2.901961 S    
P6    O26   1.544551 D    
P2    O2    1.543880 D    
P7    O39   1.749868 S    
C57   C73   1.434084 A    
H67   C131  1.078076 S    
C91   C95   1.391387 A    
Ba4   O48   2.805552 S    
C89   H105  1.078183 S    
C60   H88   1.080016 S    
C4    H8    1.112046 S    
N2    O52   1.300586 A    
C50   C74   1.418193 A    
C20   O60   1.405039 S    
C30   H62   1.110979 S    
C35   H75   1.081249 S    
C58   H86   1.078467 S    
O1    Ba1   2.901174 S    
C22   H42   1.103141 S    
C93   H109  1.074650 S    
C33   H73   1.081029 S    
C51   C55   1.400381 A    
O44   C8    1.405792 S    
C6    C10   1.522337 S    
N3    O54   1.300405 A    
O11   P16   1.724143 S    
O14   P13   1.536806 D    
C113  C133  1.409896 A    
C44   C68   1.419670 A    
C112  C114  1.437566 A    
N8    O68   1.302712 A    
C122  H114  1.058837 S    
O10   P13   1.724651 S    
O21   C29   1.406733 S    
P10   O34   1.540117 D    
C31   H63   1.110966 S    
C7    H15   1.112417 S    
C18   N2    1.463698 S    
P2    O6    1.580692 S    
O26   Ba2   2.901961 S    
O4    Ba4   2.901826 S    
C1    H5    1.112059 S    
H2    C30   1.112760 S    
C43   C47   1.400168 A    
C2    H6    1.111895 S    
C52   C76   1.418929 A    
C41   C45   1.401187 A    
C84   C104  1.417534 A    
O71   H127  0.992297 S    
C78   H94   1.082917 S    
C58   C62   1.413029 A    
O40   C15   1.401004 S    
O43   C7    1.405458 S    
C22   C26   1.528968 S    
O17   C21   1.401808 S    
C3    C31   1.526465 S    
C90   H106  1.077699 S    
C4    C32   1.526494 S    
P13   C54   1.833098 S    
C44   C48   1.400729 A    
C114  C118  1.427769 A    
C40   C72   1.389973 A    
P4    Ba4   3.496733 S    
C19   H39   1.113111 S    
N5    O61   1.300631 A    
O2    Ba2   2.901826 S    
C13   H29   1.106393 S    
H4    C32   1.112783 S    
