data_mof_unit_4596.cif
_audit_creation_date              2013-03-05T15:49:19-0500
_audit_creation_method            fapswitch 2.2
_symmetry_space_group_name_H-M    P1
_symmetry_Int_Tables_number       1
_space_group_crystal_system       triclinic
_cell_length_a                    23.567276
_cell_length_b                    26.250233
_cell_length_c                    8.55057
_cell_angle_alpha                 89.869244
_cell_angle_beta                  98.9644
_cell_angle_gamma                 90.175561
_cell_volume                      5225.13401542

loop_
_atom_site_label
_atom_site_type_symbol
_atom_site_description
_atom_site_fract_x
_atom_site_fract_y
_atom_site_fract_z
_atom_type_partial_charge
P1    P     P_3+3 0.883430 0.443490 0.026090 0.447393
P2    P     P_3+3 0.883430 0.556510 0.526090 0.459387
P3    P     P_3+3 0.383430 0.943490 0.026090 0.444395
P4    P     P_3+3 0.383430 0.056510 0.526090 0.462029
O1    O     O_2   0.888900 0.426190 0.854560 -0.348654
O2    O     O_2   0.888900 0.573810 0.354560 -0.354053
O3    O     O_2   0.388900 0.926190 0.854560 -0.348297
O4    O     O_2   0.388900 0.073810 0.354560 -0.350918
O5    O     O_3   0.935290 0.474120 0.115310 -0.449939
O6    O     O_3   0.935290 0.525880 0.615310 -0.422208
O7    O     O_3   0.435290 0.974120 0.115310 -0.450932
O8    O     O_3   0.435290 0.025880 0.615310 -0.422300
O9    O     O_3   0.980700 0.380570 0.633410 -0.377410
O10   O     O_3   0.980700 0.619430 0.133410 -0.407666
O11   O     O_3   0.480700 0.880570 0.633410 -0.376390
O12   O     O_3   0.480700 0.119430 0.133410 -0.411753
O13   O     O_2   0.884761 0.339536 0.708969 -0.379137
O14   O     O_2   0.885600 0.661833 0.206783 -0.387965
O15   O     O_2   0.384502 0.840284 0.709783 -0.376101
O16   O     O_2   0.385383 0.160855 0.204245 -0.382512
O17   O     O_3   0.825166 0.485573 0.975626 -0.578244
O18   O     O_3   0.825694 0.513973 0.475261 -0.572715
O19   O     O_3   0.325633 0.985663 0.977090 -0.573662
O20   O     O_3   0.325829 0.013857 0.476943 -0.575890
O21   O     O_3   0.961328 0.274349 0.652463 -0.525959
O22   O     O_3   0.962399 0.726661 0.141504 -0.530247
O23   O     O_3   0.460691 0.774638 0.654973 -0.530065
O24   O     O_3   0.460680 0.227821 0.147480 -0.526218
H1    H     H_    0.013463 0.289034 0.478678 0.050986
H2    H     H_    0.042649 0.704804 0.095129 0.087901
H3    H     H_    0.513653 0.787820 0.482652 0.047961
H4    H     H_    0.546131 0.208334 0.153359 0.099678
C1    C     C_3   0.040021 0.220649 0.611718 -0.058754
C2    C     C_3   0.032035 0.787651 0.073238 -0.067465
C3    C     C_3   0.535582 0.717480 0.609464 -0.063567
C4    C     C_3   0.532926 0.290131 0.106109 -0.052754
H5    H     H_    0.019978 0.193298 0.687205 0.198668
H6    H     H_    0.994941 0.813707 0.039404 0.198539
H7    H     H_    0.514047 0.691354 0.685144 0.195680
H8    H     H_    0.496143 0.314288 0.053140 0.212611
P5    P     P_3+3 0.116320 0.442910 0.663460 0.540683
P6    P     P_3+3 0.116320 0.557090 0.163460 0.541666
P7    P     P_3+3 0.616320 0.942910 0.663460 0.540855
P8    P     P_3+3 0.616320 0.057090 0.163460 0.541587
P9    P     P_3+3 0.068289 0.330711 0.103251 0.510158
P10   P     P_3+3 0.068526 0.669347 0.599759 0.513644
P11   P     P_3+3 0.568657 0.830937 0.102434 0.520231
P12   P     P_3+3 0.566119 0.170750 0.599180 0.501532
O25   O     O_2   0.110790 0.425640 0.834940 -0.287527
O26   O     O_2   0.110790 0.574360 0.334940 -0.286025
O27   O     O_2   0.610790 0.925640 0.834940 -0.287183
O28   O     O_2   0.610790 0.074360 0.334940 -0.286384
O29   O     O_3   0.018840 0.380480 0.055970 -0.364826
O30   O     O_3   0.018840 0.619520 0.555970 -0.347054
O31   O     O_3   0.518840 0.880480 0.055970 -0.365187
O32   O     O_3   0.518840 0.119520 0.555970 -0.341530
O33   O     O_2   0.112953 0.336993 0.989467 -0.329041
O34   O     O_2   0.111186 0.664109 0.480152 -0.330296
O35   O     O_2   0.612927 0.837137 0.987439 -0.328045
O36   O     O_2   0.607498 0.167283 0.475448 -0.339388
O37   O     O_3   0.182441 0.475448 0.687027 -0.598315
O38   O     O_3   0.182100 0.524339 0.186827 -0.594839
O39   O     O_3   0.682294 0.975660 0.686556 -0.598481
O40   O     O_3   0.682071 0.024297 0.186671 -0.595224
O41   O     O_3   0.033583 0.273004 0.046165 -0.527886
O42   O     O_3   0.032471 0.726858 0.548465 -0.536388
O43   O     O_3   0.534161 0.773151 0.046191 -0.518922
O44   O     O_3   0.525741 0.226403 0.549364 -0.556938
C5    C     C_3   0.975846 0.276951 0.068611 0.246999
C6    C     C_3   0.973653 0.719211 0.554573 0.233468
C7    C     C_3   0.476993 0.776318 0.073996 0.263937
C8    C     C_3   0.468321 0.216565 0.568870 0.199815
H9    H     H_    0.953918 0.308045 0.994225 0.131416
H10   H     H_    0.955191 0.691128 0.463639 0.153886
H11   H     H_    0.453577 0.806573 0.999027 0.124205
H12   H     H_    0.450204 0.184615 0.491809 0.147979
H13   H     H_    0.972945 0.284355 0.194962 -0.022197
H14   H     H_    0.967310 0.705170 0.672861 0.001213
H15   H     H_    0.475402 0.784565 0.200566 -0.027182
H16   H     H_    0.466158 0.207320 0.694350 0.033961
C9    C     C_3   0.943332 0.227867 0.016939 -0.049841
C10   C     C_3   0.939713 0.768544 0.520248 -0.067776
C11   C     C_3   0.445554 0.726215 0.029230 -0.059481
C12   C     C_3   0.429293 0.262105 0.518449 -0.058560
H17   H     H_    0.946573 0.219234 0.891690 0.165108
H18   H     H_    0.940021 0.781033 0.396350 0.147952
H19   H     H_    0.446373 0.717449 0.902631 0.158958
H20   H     H_    0.432110 0.273135 0.394895 0.158121
C13   C     C_3   0.184767 0.481955 0.287051 0.573276
C14   C     C_3   0.185131 0.518241 0.785091 0.576630
C15   C     C_3   0.684759 0.981937 0.286962 0.576172
C16   C     C_3   0.684983 0.018467 0.784601 0.577053
H21   H     H_    0.157463 0.486544 0.380737 0.048635
H22   H     H_    0.157210 0.514251 0.877730 0.046724
H23   H     H_    0.657459 0.986536 0.380650 0.048310
H24   H     H_    0.656910 0.014572 0.876912 0.045983
C17   C     C_3   0.247846 0.475925 0.366971 -0.130624
C18   C     C_3   0.247977 0.524176 0.867182 -0.130237
C19   C     C_3   0.747843 0.975920 0.366844 -0.133200
C20   C     C_3   0.747802 0.024147 0.867217 -0.132041
H25   H     H_    0.259840 0.509673 0.443523 0.158856
H26   H     H_    0.259195 0.490581 0.945233 0.158186
H27   H     H_    0.759836 0.009671 0.443376 0.159578
H28   H     H_    0.758618 0.990703 0.946191 0.157270
H29   H     H_    0.276651 0.475720 0.275630 0.181793
H30   H     H_    0.277342 0.523993 0.777255 0.180880
H31   H     H_    0.776644 0.975720 0.275488 0.180002
H32   H     H_    0.777303 0.023427 0.777667 0.181673
Ba1   Ba    Ba6+2 0.999910 0.463090 0.844860 1.592514
Ba2   Ba    Ba6+2 0.999910 0.536910 0.344860 1.591271
Ba3   Ba    Ba6+2 0.499910 0.963090 0.844860 1.594535
Ba4   Ba    Ba6+2 0.499910 0.036910 0.344860 1.593712
C21   C     C_3   0.799520 0.497804 0.108435 0.111968
C22   C     C_3   0.800298 0.501362 0.608190 0.162043
C23   C     C_3   0.298757 0.995576 0.109193 0.151888
C24   C     C_3   0.298829 0.003582 0.608885 0.147447
H33   H     H_    0.824541 0.528606 0.172656 0.177903
H34   H     H_    0.826699 0.472100 0.674951 0.169059
H35   H     H_    0.323839 0.024910 0.180565 0.170836
H36   H     H_    0.323952 0.974417 0.680578 0.170500
H37   H     H_    0.798333 0.464476 0.188296 0.074160
H38   H     H_    0.797520 0.534919 0.685316 0.031936
H39   H     H_    0.296025 0.961001 0.182962 0.054727
H40   H     H_    0.295881 0.038031 0.682471 0.055808
C25   C     C_3   0.736960 0.516468 0.056900 0.209604
C26   C     C_3   0.739005 0.479931 0.556009 0.180338
C27   C     C_3   0.237143 0.015363 0.054329 0.200106
C28   C     C_3   0.237313 0.983296 0.554037 0.202055
H41   H     H_    0.711983 0.482800 0.005816 0.143623
H42   H     H_    0.711527 0.513291 0.516114 0.139504
H43   H     H_    0.210947 0.981408 0.011481 0.135001
H44   H     H_    0.210998 0.017047 0.510671 0.136596
O45   O     O_3   0.064650 0.525760 0.074400 -0.398360
O46   O     O_3   0.064650 0.474240 0.574400 -0.396744
O47   O     O_3   0.564650 0.025760 0.074400 -0.397256
O48   O     O_3   0.564650 0.974240 0.574400 -0.397723
P13   P     P_3+3 0.928332 0.668419 0.087680 0.429673
P14   P     P_3+3 0.927543 0.331720 0.590918 0.448094
P15   P     P_3+3 0.428807 0.168891 0.087807 0.436143
P16   P     P_3+3 0.427212 0.831988 0.591872 0.448803
C29   C     C_3   0.992617 0.257224 0.535340 0.140875
C30   C     C_3   0.008155 0.732730 0.054774 0.245828
C31   C     C_3   0.490811 0.756671 0.536538 0.180031
C32   C     C_3   0.512910 0.233714 0.087903 0.257435
H45   H     H_    0.962906 0.236528 0.443074 0.115985
H46   H     H_    0.992858 0.726360 0.927011 0.016996
H47   H     H_    0.459789 0.738003 0.442662 0.115793
H48   H     H_    0.507269 0.223697 0.960201 0.028755
H49   H     H_    0.897133 0.233498 0.025202 0.095824
H50   H     H_    0.894204 0.760977 0.532951 0.102637
H51   H     H_    0.399874 0.730532 0.045247 0.093555
H52   H     H_    0.383958 0.250875 0.519579 0.100618
H53   H     H_    0.193485 0.650561 0.231993 0.180336
H54   H     H_    0.194184 0.349954 0.732826 0.177547
H55   H     H_    0.694704 0.149677 0.228318 0.179898
H56   H     H_    0.694000 0.849765 0.733057 0.176796
H57   H     H_    0.833559 0.266688 0.398970 0.175385
H58   H     H_    0.833102 0.731642 0.899886 0.174984
H59   H     H_    0.332194 0.767764 0.401440 0.174514
H60   H     H_    0.332953 0.231759 0.900424 0.177167
C33   C     C_R   0.901345 0.370620 0.279821 -0.217866
C34   C     C_R   0.900511 0.628692 0.775470 -0.226256
C35   C     C_R   0.401168 0.870676 0.280231 -0.214342
C36   C     C_R   0.400099 0.128643 0.776109 -0.231149
C37   C     C_R   0.868792 0.380964 0.131275 0.243811
C38   C     C_R   0.866838 0.618256 0.630155 0.261218
C39   C     C_R   0.368496 0.881153 0.131882 0.241055
C40   C     C_R   0.366601 0.118260 0.630562 0.257718
C41   C     C_R   0.824127 0.345795 0.074675 -0.292627
C42   C     C_R   0.820996 0.652402 0.576472 -0.303478
C43   C     C_R   0.323165 0.846520 0.076377 -0.296190
C44   C     C_R   0.320849 0.152489 0.576831 -0.323826
C45   C     C_R   0.812101 0.302997 0.168704 0.046201
C46   C     C_R   0.809516 0.694994 0.671351 0.043822
C47   C     C_R   0.310796 0.804004 0.171090 0.054261
C48   C     C_R   0.309266 0.194996 0.672030 0.025971
C49   C     C_R   0.843771 0.297320 0.322902 -0.285966
C50   C     C_R   0.842817 0.701152 0.823233 -0.235619
C51   C     C_R   0.342674 0.798166 0.324916 -0.291034
C52   C     C_R   0.342614 0.201212 0.823904 -0.199968
C53   C     C_R   0.887769 0.331930 0.380217 0.191978
C54   C     C_R   0.887835 0.667327 0.877771 0.170491
C55   C     C_R   0.387264 0.832282 0.381276 0.186128
C56   C     C_R   0.387761 0.167498 0.878274 0.173354
C57   C     C_R   0.168720 0.655634 0.115318 -0.176198
C58   C     C_R   0.168547 0.344291 0.617633 -0.158693
C59   C     C_R   0.669632 0.154937 0.112129 -0.165569
C60   C     C_R   0.668521 0.844212 0.617592 -0.151243
C61   C     C_R   0.126313 0.618753 0.056565 0.265324
C62   C     C_R   0.125467 0.380622 0.559702 0.261606
C63   C     C_R   0.626393 0.118642 0.055011 0.255160
C64   C     C_R   0.625533 0.880627 0.559500 0.262839
C65   C     C_R   0.107485 0.666135 0.806979 0.284817
C66   C     C_R   0.105515 0.332732 0.312154 0.278804
C67   C     C_R   0.606686 0.166574 0.805522 0.295248
C68   C     C_R   0.605984 0.832991 0.311319 0.289143
C69   C     C_R   0.149404 0.702427 0.866010 -0.240624
C70   C     C_R   0.147831 0.296829 0.370415 -0.242087
C71   C     C_R   0.649994 0.201867 0.862812 -0.253321
C72   C     C_R   0.648342 0.797130 0.369543 -0.251117
C73   C     C_R   0.180653 0.697874 0.020225 0.094586
C74   C     C_R   0.179772 0.301706 0.523610 0.112457
C75   C     C_R   0.682131 0.196700 0.016054 0.074520
C76   C     C_R   0.679958 0.801761 0.523251 0.101722
C77   C     C_1   0.226368 0.735489 0.074655 0.040676
C78   C     C_1   0.225332 0.263989 0.577681 0.054502
C79   C     C_1   0.728086 0.234162 0.070648 0.031854
C80   C     C_1   0.725533 0.764020 0.577278 0.047867
C81   C     C_1   0.766007 0.265793 0.113169 0.034937
C82   C     C_1   0.763276 0.732190 0.618165 0.018595
C83   C     C_1   0.264376 0.767071 0.116476 0.020594
C84   C     C_1   0.263051 0.232174 0.618747 0.029427
C85   C     C_R   0.096875 0.624861 0.903012 -0.477678
C86   C     C_R   0.094180 0.373288 0.409075 -0.435542
C87   C     C_R   0.596248 0.125208 0.902061 -0.470099
C88   C     C_R   0.594402 0.873386 0.408589 -0.441238
H61   H     H_    0.158331 0.733739 0.790657 0.145971
H62   H     H_    0.156750 0.265740 0.294826 0.149678
H63   H     H_    0.659077 0.233065 0.787276 0.144791
H64   H     H_    0.657480 0.766204 0.293638 0.151073
H65   H     H_    0.798627 0.351812 0.959741 0.211485
H66   H     H_    0.794524 0.645883 0.463081 0.200872
H67   H     H_    0.297373 0.852850 0.961897 0.205170
H68   H     H_    0.294485 0.146108 0.463253 0.211018
H69   H     H_    0.068536 0.594778 0.853841 0.176629
H70   H     H_    0.064146 0.402142 0.362400 0.158557
H71   H     H_    0.567570 0.095310 0.853481 0.175395
H72   H     H_    0.564276 0.902193 0.362010 0.158537
N1    N     N_R   0.257576 0.429423 0.461869 0.246792
O49   O     O_R   0.280332 0.432518 0.610217 -0.345604
O50   O     O_R   0.256153 0.385308 0.392487 -0.347794
N2    N     N_R   0.257713 0.570888 0.960632 0.246364
O51   O     O_R   0.279770 0.568105 0.109595 -0.349421
O52   O     O_R   0.256977 0.614832 0.889863 -0.349098
N3    N     N_R   0.757578 0.929424 0.461765 0.245690
O53   O     O_R   0.780194 0.932532 0.610219 -0.349445
O54   O     O_R   0.756302 0.885315 0.392389 -0.350603
N4    N     N_R   0.757878 0.071072 0.959447 0.246716
O55   O     O_R   0.779284 0.068542 0.108925 -0.348725
O56   O     O_R   0.758457 0.114699 0.887374 -0.343576
N5    N     N_2   0.731120 0.556238 0.936406 -0.091182
H73   H     H_    0.721413 0.544131 0.821179 0.181252
C89   C     C_3   0.767716 0.600740 0.957503 -0.800103
H74   H     H_    0.810198 0.591215 0.927175 0.210053
H75   H     H_    0.772712 0.615498 0.080009 0.292540
H76   H     H_    0.748407 0.631293 0.876523 0.234239
N6    N     N_2   0.735835 0.444973 0.422952 -0.108351
H77   H     H_    0.695050 0.441929 0.359320 0.219812
C90   C     C_3   0.762946 0.395732 0.449487 -0.815724
H78   H     H_    0.764864 0.377948 0.333309 0.225109
H79   H     H_    0.737258 0.370428 0.515874 0.275769
H80   H     H_    0.807156 0.399425 0.514395 0.254111
N7    N     N_2   0.233975 0.051105 0.922739 -0.109076
H81   H     H_    0.193407 0.053719 0.857561 0.210782
C91   C     C_3   0.260850 0.100528 0.951264 -0.814838
H82   H     H_    0.262488 0.119156 0.835893 0.222055
H83   H     H_    0.305250 0.096978 0.015254 0.253071
H84   H     H_    0.235143 0.125090 0.019051 0.280707
N8    N     N_2   0.234364 0.947564 0.422922 -0.111016
H85   H     H_    0.193920 0.944861 0.357012 0.210809
C92   C     C_3   0.261015 0.898192 0.452404 -0.810416
H86   H     H_    0.263373 0.879766 0.337344 0.221983
H87   H     H_    0.234764 0.873439 0.518787 0.277617
H88   H     H_    0.305102 0.901796 0.518452 0.254027
N9    N     N_R   0.710942 0.533890 0.191797 0.227562
O57   O     O_R   0.657784 0.521974 0.199126 -0.381221
O58   O     O_R   0.735852 0.568782 0.286552 -0.434027
N10   N     N_R   0.715653 0.455772 0.687043 0.213063
O59   O     O_R   0.662176 0.463236 0.701677 -0.389941
O60   O     O_R   0.745029 0.421696 0.775757 -0.427204
N11   N     N_R   0.212140 0.037881 0.184531 0.218950
O61   O     O_R   0.158776 0.028389 0.196579 -0.397306
O62   O     O_R   0.239625 0.072861 0.274005 -0.428015
N12   N     N_R   0.212326 0.960560 0.684476 0.219115
O63   O     O_R   0.159021 0.969889 0.696839 -0.398551
O64   O     O_R   0.239843 0.925717 0.774393 -0.433283
N13   N     N_2   0.065007 0.193767 0.490332 -0.122089
H89   H     H_    0.064561 0.212413 0.383807 0.199666
C93   C     C_3   0.055666 0.139333 0.480025 -0.661478
H90   H     H_    0.079518 0.123099 0.389665 0.277633
H91   H     H_    0.009208 0.130916 0.446298 0.276572
H92   H     H_    0.071758 0.121060 0.595704 0.230241
N14   N     N_2   0.073751 0.796848 0.967069 -0.131217
H93   H     H_    0.063496 0.779839 0.857710 0.199580
C94   C     C_3   0.091300 0.849414 0.953447 -0.656427
H94   H     H_    0.125514 0.851514 0.877812 0.248392
H95   H     H_    0.108754 0.865410 0.071262 0.236759
H96   H     H_    0.054254 0.872818 0.898630 0.284407
N15   N     N_2   0.555974 0.689418 0.482651 -0.106015
H97   H     H_    0.589819 0.705716 0.437296 0.194153
C95   C     C_3   0.558084 0.634483 0.497336 -0.616827
H98   H     H_    0.571550 0.617753 0.389818 0.278829
H99   H     H_    0.514885 0.619249 0.508626 0.258825
H100  H     H_    0.589275 0.622851 0.602063 0.215186
N16   N     N_2   0.581682 0.300241 0.024976 -0.120669
H101  H     H_    0.615532 0.275568 0.051957 0.163356
C96   C     C_3   0.569796 0.314981 0.860461 -0.724249
H102  H     H_    0.610592 0.325243 0.818304 0.239177
H103  H     H_    0.541248 0.348771 0.845656 0.303326
H104  H     H_    0.549713 0.282858 0.788696 0.249746
N17   N     N_2   0.084941 0.248951 0.710808 -0.101400
H105  H     H_    0.070412 0.279567 0.768132 0.261046
C97   C     C_3   0.126224 0.218523 0.813921 -0.775110
H106  H     H_    0.160400 0.243652 0.876314 0.244105
H107  H     H_    0.146800 0.190258 0.744369 0.242971
H108  H     H_    0.104830 0.198464 0.903456 0.281765
N18   N     N_2   0.056949 0.798533 0.236744 -0.081836
H109  H     H_    0.028110 0.796579 0.315303 0.247994
C98   C     C_3   0.112923 0.777561 0.297349 -0.697112
H110  H     H_    0.124593 0.787220 0.424719 0.251507
H111  H     H_    0.146263 0.794032 0.233864 0.221520
H112  H     H_    0.112712 0.735659 0.284775 0.243240
N19   N     N_2   0.583230 0.743439 0.706648 -0.113704
H113  H     H_    0.570914 0.773757 0.769707 0.261004
C99   C     C_3   0.624905 0.711339 0.802198 -0.794504
H114  H     H_    0.657293 0.735544 0.876069 0.249735
H115  H     H_    0.648000 0.687569 0.725585 0.232909
H116  H     H_    0.603525 0.686737 0.881582 0.288571
N20   N     N_2   0.547115 0.304956 0.271743 -0.078366
H117  H     H_    0.514267 0.301435 0.336936 0.242939
C100  C     C_3   0.603707 0.293380 0.357246 -0.706982
H118  H     H_    0.605009 0.301225 0.485372 0.252564
H119  H     H_    0.636465 0.317958 0.314092 0.227961
H120  H     H_    0.614542 0.252869 0.341855 0.238719
N21   N     N_2   0.945834 0.403072 0.340832 -0.143699
H121  H     H_    0.975876 0.410893 0.270281 0.199692
C101  C     C_3   0.926709 0.444564 0.426488 -0.500135
H122  H     H_    0.965826 0.460810 0.491578 0.289581
H123  H     H_    0.899031 0.432067 0.512920 0.205121
H124  H     H_    0.901399 0.472093 0.348414 0.228365
N22   N     N_2   0.945639 0.595900 0.826583 -0.109927
H125  H     H_    0.983067 0.614631 0.867449 0.142166
C102  C     C_3   0.928470 0.555854 0.923647 -0.473874
H126  H     H_    0.967765 0.539570 0.987015 0.284691
H127  H     H_    0.901849 0.527635 0.851538 0.223328
H128  H     H_    0.902176 0.569017 0.012226 0.199716
N23   N     N_2   0.445775 0.903032 0.341003 -0.144378
H129  H     H_    0.475794 0.910787 0.270311 0.199233
C103  C     C_3   0.426716 0.944588 0.426586 -0.497992
H130  H     H_    0.465852 0.960783 0.491736 0.289154
H131  H     H_    0.398896 0.932186 0.512870 0.207361
H132  H     H_    0.401490 0.972143 0.348444 0.227017
N24   N     N_2   0.445122 0.095808 0.826961 -0.112409
H133  H     H_    0.482526 0.114527 0.867812 0.140266
C104  C     C_3   0.427758 0.055927 0.924080 -0.456346
H134  H     H_    0.467059 0.039881 0.988648 0.281933
H135  H     H_    0.401761 0.027439 0.851498 0.223943
H136  H     H_    0.400590 0.069265 0.010561 0.196314
N25   N     N_R   0.965710 0.185015 0.116166 0.260695
O65   O     O_R   0.932817 0.161569 0.202080 -0.370011
O66   O     O_R   0.015754 0.166077 0.103741 -0.367042
N26   N     N_R   0.962872 0.808890 0.628835 0.267128
O67   O     O_R   0.933537 0.825119 0.735534 -0.374462
O68   O     O_R   0.009202 0.833086 0.606551 -0.367459
N27   N     N_R   0.471624 0.684293 0.126965 0.269981
O69   O     O_R   0.442000 0.659874 0.219542 -0.362237
O70   O     O_R   0.522170 0.667625 0.109364 -0.355397
N28   N     N_R   0.443080 0.305208 0.624578 0.267495
O71   O     O_R   0.430144 0.303485 0.766933 -0.405030
O72   O     O_R   0.460846 0.347828 0.570945 -0.339770
N29   N     N_R   0.165499 0.438286 0.189525 0.206563
O73   O     O_R   0.110907 0.435674 0.139724 -0.356903
O74   O     O_R   0.200134 0.416487 0.105620 -0.365914
N30   N     N_R   0.166903 0.561639 0.684904 0.207028
O75   O     O_R   0.112514 0.564395 0.632664 -0.353611
O76   O     O_R   0.202362 0.583107 0.602185 -0.371342
N31   N     N_R   0.665472 0.938273 0.189471 0.205922
O77   O     O_R   0.610899 0.935798 0.139293 -0.358159
O78   O     O_R   0.700128 0.916380 0.105826 -0.367366
N32   N     N_R   0.667076 0.061975 0.684383 0.207242
O79   O     O_R   0.612673 0.065347 0.632900 -0.354371
O80   O     O_R   0.702628 0.083100 0.601265 -0.372265

loop_
_geom_bond_atom_site_label_1
_geom_bond_atom_site_label_2
_geom_bond_distance
_ccdc_geom_bond_type
C19   H27   1.112003 S    
C91   H83   1.106770 S    
N3    O54   1.300314 A    
C30   H46   1.108648 S    
C95   H98   1.110117 S    
P5    O37   1.758761 S    
N23   H129  1.019387 S    
P7    O39   1.758543 S    
C97   H107  1.110601 S    
N17   H105  1.029164 S    
P8    O40   1.758723 S    
P9    O33   1.548921 D    
C77   C83   1.230665 T    
N11   O61   1.301045 A    
O26   Ba2   2.802693 S    
C58   C74   1.427627 A    
N12   O63   1.301037 A    
P2    Ba2   3.397010 S    
C76   C80   1.482686 S    
C6    H10   1.110184 S    
O23   C31   1.407157 S    
O24   C32   1.411549 S    
P4    O8    1.560416 S    
C7    C11   1.527489 S    
C29   H45   1.111459 S    
C3    N19   1.457030 S    
O31   Ba3   2.810173 S    
P8    O47   1.564240 S    
C14   N30   1.449165 S    
C70   H62   1.083395 S    
P5    O25   1.558381 D    
C37   C41   1.425442 A    
N4    O56   1.300312 A    
P16   C55   1.897531 S    
C23   H39   1.111488 S    
Ba1   O45   2.820032 S    
C36   C40   1.392982 A    
C13   N29   1.448733 S    
C39   C43   1.425153 A    
C102  H126  1.085764 S    
P4    C40   1.924501 S    
C58   C62   1.425734 A    
O14   P13   1.548870 D    
N1    O49   1.300544 A    
C97   H106  1.110375 S    
O10   P13   1.785164 S    
C33   N21   1.386811 S    
C34   N22   1.386410 S    
O44   C8    1.412001 S    
N26   O67   1.300736 A    
N2    O52   1.300319 A    
C104  H136  1.108814 S    
C50   C54   1.407532 A    
C18   N2    1.462972 S    
P8    Ba4   3.395074 S    
N10   O60   1.300729 A    
C72   H64   1.083386 S    
C92   H87   1.110162 S    
C42   C46   1.433793 A    
C102  H128  1.107186 S    
O29   Ba1   2.810173 S    
O5    Ba2   2.820706 S    
C25   N9    1.462896 S    
O7    Ba4   2.820706 S    
C12   H20   1.106653 S    
C14   C18   1.544600 S    
N8    C92   1.446345 S    
C43   H67   1.081546 S    
C65   C85   1.403172 A    
C4    N20   1.457123 S    
C3    N15   1.455196 S    
C18   H30   1.111789 S    
H58   C50   1.082991 S    
C94   H95   1.109992 S    
C11   N27   1.458366 S    
O42   C6    1.409023 S    
C43   C47   1.433127 A    
P4    O20   1.757293 S    
C93   H91   1.109592 S    
H3    C31   1.115144 S    
C6    C10   1.527883 S    
C27   H43   1.112426 S    
H4    C32   1.111322 S    
P3    O7    1.558346 S    
P11   O35   1.549115 D    
C78   C84   1.231633 T    
C100  H118  1.110897 S    
H55   C59   1.082657 S    
O40   C15   1.398216 S    
N18   C98   1.449797 S    
C45   C49   1.418028 A    
C33   C37   1.404145 A    
C52   C56   1.407551 A    
N6    C90   1.445355 S    
N20   C100  1.450264 S    
N25   O65   1.300725 A    
C5    H13   1.110729 S    
Ba3   Ba4   4.689914 S    
C20   H28   1.112083 S    
O22   P13   1.753386 S    
P7    O27   1.558381 D    
C7    H15   1.110539 S    
N32   O79   1.292311 A    
P3    C39   1.925814 S    
N16   C96   1.443035 S    
H54   C58   1.082569 S    
C90   H78   1.105905 S    
C88   H72   1.071598 S    
O16   P15   1.548650 D    
C95   H99   1.110727 S    
C92   H86   1.106497 S    
C22   C26   1.548376 S    
C9    H49   1.112338 S    
Ba3   O48   2.975803 S    
N19   C99   1.447074 S    
O28   Ba4   2.802693 S    
C16   H24   1.110465 S    
N30   O75   1.292201 A    
O30   Ba2   2.814417 S    
O6    Ba1   2.820922 S    
N5    H73   1.027042 S    
N21   C101  1.426682 S    
H60   C52   1.082972 S    
O9    Ba1   2.814774 S    
C42   H66   1.081732 S    
N30   O76   1.302183 A    
C70   C74   1.411311 A    
C20   N4    1.462830 S    
C47   C83   1.480258 S    
P6    O38   1.758740 S    
C63   C87   1.398202 A    
P8    O28   1.560560 D    
P9    O29   1.757383 S    
P5    Ba1   3.398799 S    
N13   H89   1.031672 S    
P10   O34   1.548409 D    
C96   H103  1.109968 S    
C26   N10   1.465324 S    
O24   P15   1.759143 S    
P7    Ba3   3.398799 S    
Ba4   O48   2.820259 S    
C67   C71   1.407302 A    
C98   H111  1.108504 S    
C20   H32   1.111808 S    
C71   H63   1.083190 S    
O17   C21   1.405239 S    
C101  H123  1.107744 S    
H57   C49   1.082933 S    
C1    C29   1.540373 S    
C16   N32   1.450028 S    
C60   C76   1.427876 A    
C24   H36   1.095461 S    
P2    O18   1.759463 S    
C25   H41   1.112116 S    
C1    N17   1.452270 S    
C72   C76   1.411486 A    
C100  H120  1.107324 S    
H1    C29   1.114968 S    
N15   H97   1.031126 S    
C22   H34   1.092371 S    
N28   O72   1.300741 A    
N9    O58   1.300725 A    
C61   C85   1.395270 A    
P6    O26   1.560560 D    
C21   H33   1.096005 S    
N27   O70   1.300953 A    
P7    C64   1.891916 S    
O20   C24   1.404185 S    
C23   H35   1.096239 S    
N24   C104  1.432612 S    
P12   C67   1.874308 S    
P9    O41   1.753089 S    
Ba2   O46   2.820259 S    
O37   C14   1.398657 S    
C15   N31   1.448567 S    
O10   Ba2   2.810556 S    
C46   C50   1.418161 A    
C99   H116  1.110996 S    
C26   N6    1.455990 S    
C27   N7    1.456455 S    
C45   C81   1.481261 S    
C92   H88   1.106429 S    
C57   C61   1.424188 A    
H56   C60   1.082559 S    
C60   C64   1.426108 A    
O9    P14   1.787797 S    
P6    Ba2   3.395074 S    
C17   H29   1.111826 S    
C8    H16   1.108355 S    
C66   C70   1.407028 A    
C49   C53   1.406661 A    
C87   H71   1.075190 S    
C13   H21   1.109887 S    
P7    O48   1.566336 S    
C10   N26   1.457624 S    
C15   H23   1.109852 S    
O18   C22   1.403143 S    
C103  H132  1.095333 S    
C21   H37   1.111552 S    
N14   H93   1.030999 S    
C79   C81   1.231211 T    
C41   C45   1.433129 A    
C15   C19   1.544763 S    
C4    C32   1.553666 S    
C9    H17   1.109427 S    
P15   C56   1.899211 S    
C44   C48   1.434382 A    
N12   O64   1.301270 A    
C99   H115  1.108953 S    
C11   H19   1.110318 S    
C9    N25   1.457120 S    
N29   O74   1.302186 A    
P1    O1    1.560874 D    
O25   Ba1   2.808440 S    
P10   O42   1.755610 S    
P3    O3    1.560874 D    
O4    Ba4   2.805915 S    
C68   C88   1.402572 A    
C6    H14   1.107362 S    
C26   H42   1.111709 S    
C89   H74   1.102226 S    
O38   C13   1.398389 S    
C59   C75   1.425751 A    
P12   O32   1.746796 S    
C57   C73   1.426493 A    
P1    Ba1   3.393388 S    
C34   C38   1.393421 A    
P3    Ba3   3.393388 S    
C90   H80   1.105629 S    
N26   O68   1.300747 A    
O27   Ba3   2.808440 S    
N3    O53   1.300531 A    
C5    H9    1.111581 S    
C104  H135  1.095711 S    
P2    C38   1.921120 S    
C67   C87   1.406600 A    
C32   H48   1.111295 S    
C102  H127  1.095983 S    
C35   N23   1.386686 S    
C91   H84   1.110075 S    
C99   H114  1.110801 S    
C2    H6    1.113416 S    
C2    N14   1.457603 S    
C71   C75   1.414022 A    
C89   H76   1.109629 S    
C69   H61   1.083411 S    
N23   C103  1.426985 S    
C14   H22   1.110417 S    
C97   H108  1.111032 S    
C11   H51   1.112368 S    
N17   C97   1.447807 S    
N18   H109  1.028436 S    
C28   N8    1.456576 S    
P11   C68   1.864775 S    
P1    O5    1.558346 S    
C68   C72   1.406868 A    
N22   C102  1.433762 S    
C10   H18   1.109342 S    
C35   C55   1.397075 A    
C1    H5    1.116257 S    
C3    H7    1.115731 S    
N22   H125  1.021751 S    
C94   H94   1.110656 S    
C44   H68   1.081346 S    
C12   N28   1.455979 S    
C103  H130  1.086429 S    
P10   O30   1.754520 S    
N31   O78   1.302182 A    
P12   O44   1.760853 S    
C28   N12   1.465063 S    
C2    N18   1.458051 S    
C36   N24   1.384899 S    
N16   H101  1.026763 S    
O12   Ba4   2.810556 S    
O11   P16   1.787240 S    
N4    O55   1.300533 A    
C2    C30   1.545462 S    
C24   H40   1.111321 S    
Ba1   O46   2.975803 S    
O21   C29   1.408181 S    
H59   C51   1.082969 S    
C66   C86   1.402261 A    
N32   O80   1.302139 A    
C19   H31   1.111846 S    
H2    C30   1.110128 S    
C93   H90   1.110343 S    
C101  H122  1.086403 S    
N1    O50   1.300330 A    
C18   H26   1.112108 S    
Ba1   Ba2   4.689914 S    
P6    C61   1.889184 S    
Ba3   O47   2.820032 S    
N19   H113  1.029823 S    
N7    H81   1.031294 S    
O1    Ba1   2.800244 S    
O41   C5    1.407620 S    
N2    O51   1.300536 A    
O3    Ba3   2.800244 S    
O43   C7    1.406846 S    
N21   H121  1.019307 S    
C5    C9    1.527608 S    
N20   H117  1.025850 S    
C48   C84   1.481924 S    
C40   C44   1.425034 A    
N10   O59   1.301220 A    
C3    C31   1.535961 S    
N24   H133  1.021107 S    
P1    O17   1.764797 S    
N14   C94   1.448936 S    
C96   H102  1.110362 S    
P3    O19   1.756619 S    
N31   O77   1.292316 A    
P4    O4    1.558694 D    
C1    N13   1.455455 S    
C98   H110  1.110642 S    
C31   H47   1.111611 S    
P5    C62   1.890887 S    
P6    O45   1.564240 S    
C34   C54   1.403678 A    
C94   H96   1.110788 S    
P8    C63   1.893765 S    
C21   C25   1.552077 S    
C91   H82   1.106031 S    
C23   C27   1.545832 S    
C93   H92   1.110994 S    
P14   C53   1.896895 S    
C4    N16   1.455234 S    
C41   H65   1.080612 S    
N27   O69   1.300799 A    
O15   P16   1.547799 D    
C100  H119  1.110421 S    
O39   C16   1.398867 S    
C69   C73   1.411594 A    
O13   P14   1.548219 D    
N9    O57   1.301233 A    
C59   C63   1.423294 A    
P4    Ba4   3.397010 S    
N25   O66   1.300883 A    
C33   C53   1.396560 A    
O2    Ba2   2.805915 S    
P2    O2    1.558694 D    
C28   H44   1.112304 S    
P11   O43   1.751326 S    
P5    O46   1.566336 S    
P12   O36   1.549539 D    
C51   C55   1.406049 A    
C17   N1    1.462963 S    
C90   H79   1.110339 S    
O11   Ba3   2.814774 S    
C4    H8    1.112842 S    
C95   H100  1.109257 S    
C85   H69   1.075738 S    
N7    C91   1.446404 S    
C47   C51   1.417652 A    
P13   C54   1.897214 S    
C89   H75   1.106492 S    
C75   C79   1.481871 S    
C13   C17   1.544787 S    
N5    C89   1.444763 S    
C35   C39   1.404584 A    
C36   C56   1.404643 A    
C19   N3    1.462959 S    
C48   C52   1.418727 A    
P1    C37   1.925704 S    
C8    H12   1.110195 S    
C8    C12   1.530261 S    
C25   N5    1.456745 S    
C62   C86   1.394227 A    
C10   H50   1.111962 S    
C12   H52   1.108961 S    
C103  H131  1.108390 S    
N13   C93   1.445887 S    
C74   C78   1.482104 S    
C96   H104  1.104983 S    
O12   P15   1.786685 S    
Ba4   O47   2.977762 S    
N8    H85   1.031264 S    
P2    O6    1.560416 S    
C16   C20   1.544755 S    
P10   C65   1.866119 S    
P11   O31   1.757614 S    
C98   H112  1.105334 S    
N11   O62   1.301222 A    
C73   C77   1.480420 S    
C46   C82   1.482501 S    
C101  H124  1.095447 S    
N6    H77   1.031059 S    
P9    C66   1.864121 S    
N29   O73   1.292346 A    
O23   P16   1.746715 S    
O21   P14   1.747018 S    
C7    H11   1.111901 S    
H53   C57   1.082611 S    
C65   C69   1.406910 A    
N15   C95   1.447564 S    
C38   C42   1.425069 A    
O32   Ba4   2.814417 S    
N28   O71   1.300738 A    
C86   H70   1.071368 S    
O19   C23   1.403613 S    
C22   H38   1.109769 S    
C80   C82   1.232034 T    
C24   C28   1.545910 S    
Ba2   O45   2.977762 S    
C27   N11   1.464795 S    
C104  H134  1.087228 S    
O22   C30   1.409194 S    
C64   C88   1.394518 A    
O8    Ba3   2.820922 S    
C17   H25   1.112028 S    
