data_mof_unit_4637.cif
_audit_creation_date              2013-03-05T15:48:52-0500
_audit_creation_method            fapswitch 2.2
_symmetry_space_group_name_H-M    P1
_symmetry_Int_Tables_number       1
_space_group_crystal_system       triclinic
_cell_length_a                    17.711335
_cell_length_b                    24.380608
_cell_length_c                    15.073439
_cell_angle_alpha                 90.054574
_cell_angle_beta                  126.099291
_cell_angle_gamma                 89.845978
_cell_volume                      5259.15920053

loop_
_atom_site_label
_atom_site_type_symbol
_atom_site_description
_atom_site_fract_x
_atom_site_fract_y
_atom_site_fract_z
_atom_type_partial_charge
C1    C     C_R   0.947086 0.846875 0.090914 0.081453
C2    C     C_R   0.947902 0.153566 0.090051 0.133271
C3    C     C_R   0.447584 0.345887 0.088837 0.004171
C4    C     C_R   0.448999 0.654014 0.089855 0.095699
H1    H     H_    0.994350 0.832801 0.174663 0.191322
H2    H     H_    0.998276 0.167998 0.172665 0.192462
H3    H     H_    0.492254 0.331595 0.172605 0.202053
H4    H     H_    0.496997 0.668511 0.173115 0.191825
N1    N     N_R   0.950530 0.896220 0.057200 -0.074546
N2    N     N_R   0.950530 0.103780 0.057200 -0.079990
N3    N     N_R   0.450530 0.396220 0.057200 -0.066917
N4    N     N_R   0.450530 0.603780 0.057200 -0.074162
C5    C     C_R   0.854966 0.152897 0.908109 0.031602
C6    C     C_R   0.853160 0.847495 0.908562 0.056120
C7    C     C_R   0.355548 0.653028 0.908087 0.066328
C8    C     C_R   0.355132 0.347340 0.906828 -0.036624
H5    H     H_    0.812963 0.165159 0.823037 0.212534
H6    H     H_    0.808825 0.835193 0.823440 0.216874
H7    H     H_    0.311446 0.664765 0.822721 0.218079
H8    H     H_    0.315453 0.335300 0.821662 0.212452
N5    N     N_R   0.893330 0.103780 0.942800 -0.102329
N6    N     N_R   0.893330 0.896220 0.942800 -0.102736
N7    N     N_R   0.393330 0.603780 0.942800 -0.107580
N8    N     N_R   0.393330 0.396220 0.942800 -0.094673
C9    C     C_R   0.730842 0.954697 0.742427 -0.023505
C10   C     C_R   0.732679 0.047229 0.743823 0.059965
C11   C     C_R   0.230593 0.454836 0.741332 -0.045602
C12   C     C_R   0.232748 0.547378 0.743568 0.052580
H9    H     H_    0.708831 0.912366 0.727415 0.188029
H10   H     H_    0.714760 0.090122 0.732942 0.208554
H11   H     H_    0.208375 0.412525 0.725286 0.182404
H12   H     H_    0.215002 0.590271 0.732765 0.204764
N9    N     N_R   0.818150 0.971400 0.792440 -0.094192
N10   N     N_R   0.818150 0.028600 0.792440 -0.109728
N11   N     N_R   0.318150 0.471400 0.792440 -0.090903
N12   N     N_R   0.318150 0.528600 0.792440 -0.109553
C13   C     C_R   0.987010 0.046875 0.254206 0.789899
C14   C     C_R   0.983263 0.955406 0.252340 0.725632
C15   C     C_R   0.482441 0.546123 0.249777 0.789539
C16   C     C_R   0.481141 0.454799 0.249415 0.716548
N13   N     N_R   0.025710 0.028600 0.207560 -0.178054
N14   N     N_R   0.025710 0.971400 0.207560 -0.178321
N15   N     N_R   0.525710 0.528600 0.207560 -0.175988
N16   N     N_R   0.525710 0.471400 0.207560 -0.174042
C17   C     C_R   0.885269 0.815737 0.000054 0.164600
C18   C     C_R   0.886941 0.185024 0.998785 0.109907
C19   C     C_R   0.388307 0.314414 0.996493 0.172416
C20   C     C_R   0.389080 0.685605 0.998645 0.146232
C21   C     C_R   0.675545 0.001783 0.708680 0.263210
C22   C     C_R   0.175475 0.502090 0.708176 0.265645
C23   C     C_R   0.960482 0.001922 0.286716 -0.168765
C24   C     C_R   0.455668 0.500790 0.281615 -0.161793
C25   C     C_R   0.247210 0.955003 0.309487 0.907878
C26   C     C_R   0.247919 0.045103 0.308916 0.715590
C27   C     C_R   0.747332 0.455032 0.309477 0.899677
C28   C     C_R   0.747365 0.545117 0.309260 0.737341
N17   N     N_R   0.181850 0.971400 0.207560 -0.201162
N18   N     N_R   0.181850 0.028600 0.207560 -0.196168
N19   N     N_R   0.681850 0.471400 0.207560 -0.203086
N20   N     N_R   0.681850 0.528600 0.207560 -0.188994
C29   C     C_R   0.931770 0.045040 0.689717 0.157036
C30   C     C_R   0.932299 0.955417 0.689264 0.129317
C31   C     C_R   0.430753 0.544463 0.688674 0.167973
C32   C     C_R   0.432083 0.454966 0.689423 0.145472
H13   H     H_    0.905705 0.086217 0.666044 0.185578
H14   H     H_    0.919941 0.913025 0.666909 0.229124
H15   H     H_    0.403586 0.585420 0.664001 0.181564
H16   H     H_    0.418308 0.412601 0.667657 0.220820
N21   N     N_R   0.974290 0.028600 0.792440 -0.083096
N22   N     N_R   0.974290 0.971400 0.792440 -0.088975
N23   N     N_R   0.474290 0.528600 0.792440 -0.088193
N24   N     N_R   0.474290 0.471400 0.792440 -0.088003
C33   C     C_R   0.097879 0.876902 0.908212 0.766054
C34   C     C_R   0.095757 0.126658 0.908741 0.719316
C35   C     C_R   0.599628 0.378709 0.909372 0.750819
C36   C     C_R   0.600246 0.621457 0.909948 0.755702
N25   N     N_R   0.049470 0.896220 0.942800 -0.171478
N26   N     N_R   0.049470 0.103780 0.942800 -0.171885
N27   N     N_R   0.549470 0.396220 0.942800 -0.173403
N28   N     N_R   0.549470 0.603780 0.942800 -0.175222
C37   C     C_R   0.187815 0.125922 0.092453 0.764231
C38   C     C_R   0.188532 0.874933 0.091285 0.715951
C39   C     C_R   0.688622 0.624764 0.092858 0.690345
C40   C     C_R   0.688990 0.375497 0.092106 0.685544
N29   N     N_R   0.106670 0.103780 0.057200 -0.163390
N30   N     N_R   0.106670 0.896220 0.057200 -0.164835
N31   N     N_R   0.606670 0.603780 0.057200 -0.161861
N32   N     N_R   0.606670 0.396220 0.057200 -0.160810
Ni1   Ni    Ni4+2 0.065600 0.934400 0.131190 0.319504
Ni2   Ni    Ni4+2 0.065600 0.065600 0.131190 0.335302
Ni3   Ni    Ni4+2 0.565600 0.434400 0.131190 0.324661
Ni4   Ni    Ni4+2 0.565600 0.565600 0.131190 0.323225
Ni5   Ni    Ni4+2 0.934400 0.065600 0.868810 0.261331
Ni6   Ni    Ni4+2 0.934400 0.934400 0.868810 0.277917
Ni7   Ni    Ni4+2 0.434400 0.565600 0.868810 0.267517
Ni8   Ni    Ni4+2 0.434400 0.434400 0.868810 0.268443
C41   C     C_R   0.292340 0.999968 0.376129 -0.173862
C42   C     C_R   0.791900 0.500137 0.376515 -0.169268
C43   C     C_R   0.905063 0.000444 0.620426 0.122078
C44   C     C_R   0.403680 0.499441 0.619490 0.113032
C45   C     C_R   0.186868 0.861807 0.999447 -0.180844
C46   C     C_R   0.185408 0.141096 0.001360 -0.183316
C47   C     C_R   0.689243 0.363874 0.001122 -0.228505
C48   C     C_R   0.688777 0.637174 0.002351 -0.173383
C49   C     C_3   0.904946 0.061367 0.377913 0.060281
C50   C     C_3   0.861478 0.958474 0.340141 -0.009635
C51   C     C_3   0.394180 0.558249 0.368721 0.065182
C52   C     C_3   0.361704 0.454105 0.340398 0.008816
H17   H     H_    0.966844 0.087418 0.412847 0.212626
H18   H     H_    0.895018 0.919626 0.346820 0.234130
H19   H     H_    0.453142 0.586334 0.400936 0.214698
H20   H     H_    0.398908 0.416303 0.350118 0.234984
C53   C     C_3   0.882937 0.061935 0.464844 0.217696
C54   C     C_3   0.837284 0.955912 0.427376 0.287756
C55   C     C_3   0.372404 0.558531 0.456111 0.218257
C56   C     C_3   0.338651 0.451251 0.428910 0.271833
C57   C     C_3   0.036019 0.988524 0.488210 0.116396
C58   C     C_3   0.532887 0.489857 0.484252 0.105493
C59   C     C_3   0.939179 0.002881 0.369658 -0.380549
C60   C     C_3   0.434543 0.501109 0.365123 -0.383727
C61   C     C_3   0.906338 0.000784 0.520935 -0.544728
C62   C     C_3   0.403420 0.498838 0.518471 -0.545513
C63   C     C_3   0.010547 0.982566 0.571126 1.175546
C64   C     C_3   0.509173 0.484330 0.568933 1.179236
C65   C     C_3   0.745146 0.215793 0.973812 1.356177
C66   C     C_3   0.738525 0.782970 0.957452 1.281650
C67   C     C_3   0.244385 0.715366 0.965877 1.301539
C68   C     C_3   0.282743 0.235555 0.881971 1.280030
C69   C     C_3   0.198356 0.761856 0.986526 -0.095424
C70   C     C_3   0.238523 0.182652 0.891211 -0.136170
C71   C     C_3   0.687333 0.266440 0.959611 -0.187900
C72   C     C_3   0.693899 0.736714 0.979501 -0.091387
H21   H     H_    0.667775 0.260447 0.017163 0.171573
H22   H     H_    0.707642 0.747595 0.059787 0.154872
H23   H     H_    0.217698 0.753231 0.070317 0.164735
H24   H     H_    0.164803 0.186948 0.820768 0.236042
C73   C     C_3   0.332618 0.780396 0.920076 0.505599
C74   C     C_3   0.411303 0.222718 0.084175 0.444982
C75   C     C_3   0.822137 0.277385 0.910529 0.411972
C76   C     C_3   0.840492 0.718646 0.931796 0.516641
C77   C     C_3   0.899055 0.263183 0.112516 -0.635745
C78   C     C_3   0.891679 0.742835 0.120187 -0.718769
C79   C     C_3   0.397030 0.761536 0.114890 -0.711482
C80   C     C_3   0.273932 0.286191 0.023089 -0.573302
C81   C     C_3   0.839648 0.234903 0.998534 -0.342548
C82   C     C_3   0.839707 0.765598 0.001270 -0.358069
C83   C     C_3   0.341501 0.735157 0.998787 -0.367176
C84   C     C_3   0.340671 0.264893 0.995812 -0.345224
H25   H     H_    0.961394 0.282545 0.124858 0.282550
H26   H     H_    0.967080 0.737251 0.157611 0.280944
H27   H     H_    0.470666 0.768640 0.145876 0.282336
H28   H     H_    0.315897 0.301955 0.108398 0.289181
H29   H     H_    0.924994 0.234247 0.181700 0.268307
H30   H     H_    0.888445 0.773899 0.172243 0.273247
H31   H     H_    0.400376 0.732108 0.173698 0.272020
H32   H     H_    0.231870 0.321829 0.970109 0.253743
C85   C     C_3   0.246622 0.818820 0.997329 -0.370896
C86   C     C_3   0.248063 0.183199 0.003409 -0.332718
C87   C     C_3   0.749496 0.321034 0.998977 -0.320344
C88   C     C_3   0.748631 0.680554 0.001759 -0.353827
C89   C     C_3   0.266430 0.828179 0.906193 0.300273
C90   C     C_3   0.358809 0.176707 0.101739 0.321981
C91   C     C_3   0.785342 0.334483 0.924098 0.347597
C92   C     C_3   0.777932 0.669068 0.919918 0.296587
C93   C     C_3   0.347192 0.814474 0.112650 0.184543
C94   C     C_3   0.206871 0.240874 0.004297 0.183487
C95   C     C_3   0.838901 0.304755 0.120302 0.183736
C96   C     C_3   0.844896 0.689343 0.120648 0.183541
H33   H     H_    0.810824 0.281541 0.158778 0.202434
H34   H     H_    0.832237 0.698513 0.182594 0.215931
H35   H     H_    0.341073 0.807318 0.180386 0.228710
H36   H     H_    0.142435 0.247839 0.919470 0.168676
H37   H     H_    0.404660 0.795646 0.958158 0.171762
H38   H     H_    0.461499 0.243532 0.163580 0.122555
H39   H     H_    0.887955 0.282242 0.918210 0.168185
H40   H     H_    0.914709 0.705727 0.976420 0.168147
C97   C     C_3   0.448278 0.980819 0.426780 0.345348
C98   C     C_3   0.427115 0.060504 0.514074 0.505000
C99   C     C_3   0.948271 0.485257 0.425417 0.324392
C100  C     C_3   0.925899 0.561036 0.517963 0.501818
H41   H     H_    0.435274 0.010862 0.363388 0.109266
H42   H     H_    0.412613 0.086053 0.444422 0.149691
H43   H     H_    0.936064 0.517709 0.366188 0.118025
H44   H     H_    0.910559 0.588218 0.449846 0.142030
C101  C     C_3   0.552857 0.978686 0.517541 1.271378
C102  C     C_3   0.532713 0.062140 0.602655 1.136521
C103  C     C_3   0.052770 0.481724 0.516013 1.287470
C104  C     C_3   0.031955 0.562649 0.606055 1.128553
H45   H     H_    0.558528 0.926027 0.690241 0.268940
H46   H     H_    0.542846 0.986076 0.742395 0.292450
H47   H     H_    0.059363 0.424981 0.686140 0.253784
H48   H     H_    0.043157 0.483569 0.741383 0.290113
C105  C     C_3   0.418440 0.963504 0.575668 0.561825
C106  C     C_3   0.919263 0.462149 0.573794 0.572816
C107  C     C_3   0.393007 0.999998 0.472967 -0.608953
C108  C     C_3   0.892742 0.500846 0.473159 -0.594640
C109  C     C_3   0.573573 0.002724 0.625367 -0.616066
C110  C     C_3   0.073488 0.503470 0.625196 -0.599986
C111  C     C_3   0.526327 0.967524 0.665364 -0.614125
C112  C     C_3   0.026854 0.466427 0.663444 -0.645042
N33   N     N_R   0.835870 0.091327 0.275147 0.332147
O1    O     O_R   0.821384 0.143009 0.282390 -0.193372
O2    O     O_R   0.804948 0.072448 0.178567 -0.236919
N34   N     N_R   0.779704 0.959787 0.223777 0.294273
O3    O     O_R   0.768624 0.920649 0.158290 -0.226885
O4    O     O_R   0.714398 0.996659 0.185427 -0.186159
N35   N     N_R   0.322172 0.585354 0.263486 0.330429
O5    O     O_R   0.301733 0.636382 0.266340 -0.216693
O6    O     O_R   0.295208 0.565534 0.168894 -0.238533
N36   N     N_R   0.279473 0.452225 0.224368 0.298767
O7    O     O_R   0.270921 0.411889 0.162385 -0.291086
O8    O     O_R   0.211572 0.487515 0.183162 -0.191779
N37   N     N_R   0.783754 0.076526 0.416664 0.293384
O9    O     O_R   0.760968 0.091728 0.480886 -0.252507
O10   O     O_R   0.716697 0.073861 0.312148 -0.191577
N38   N     N_R   0.737616 0.968047 0.376370 0.300505
O11   O     O_R   0.674580 0.938372 0.293028 -0.176324
O12   O     O_R   0.715254 0.985237 0.439731 -0.212590
N39   N     N_R   0.272124 0.569042 0.408056 0.293672
O13   O     O_R   0.248750 0.582490 0.472575 -0.243425
O14   O     O_R   0.205151 0.565119 0.303709 -0.195171
N40   N     N_R   0.238047 0.460075 0.378082 0.301314
O15   O     O_R   0.177450 0.428984 0.295854 -0.170893
O16   O     O_R   0.214775 0.475350 0.441662 -0.215103
N41   N     N_R   0.941754 0.107030 0.542616 0.235009
O17   O     O_R   0.032436 0.105365 0.601697 -0.250567
O18   O     O_R   0.903909 0.154579 0.533372 -0.215990
N42   N     N_R   0.851096 0.899083 0.472541 0.255678
O19   O     O_R   0.899508 0.861865 0.464513 -0.213539
O20   O     O_R   0.795060 0.881183 0.495486 -0.259044
N43   N     N_R   0.425397 0.606134 0.528772 0.234804
O21   O     O_R   0.515509 0.608857 0.583853 -0.229327
O22   O     O_R   0.381753 0.651649 0.517543 -0.207904
N44   N     N_R   0.358298 0.395052 0.478461 0.256375
O23   O     O_R   0.413028 0.360218 0.476647 -0.186312
O24   O     O_R   0.302060 0.374329 0.498741 -0.248683
N45   N     N_R   0.109843 0.031651 0.532322 0.281274
O25   O     O_R   0.185600 0.026238 0.632016 -0.105361
O26   O     O_R   0.116399 0.063703 0.468563 -0.265228
N46   N     N_R   0.079697 0.937141 0.483468 0.292231
O27   O     O_R   0.047521 0.888457 0.478082 -0.173785
O28   O     O_R   0.151361 0.940047 0.480241 -0.253273
N47   N     N_R   0.604224 0.534301 0.525839 0.286968
O29   O     O_R   0.605083 0.569504 0.462080 -0.264721
O30   O     O_R   0.682149 0.528884 0.623709 -0.106604
N48   N     N_R   0.579827 0.439403 0.481865 0.290536
O31   O     O_R   0.646832 0.443889 0.470458 -0.265405
O32   O     O_R   0.554533 0.389966 0.485285 -0.161807
F1    F     F_    0.072082 0.011041 0.667781 -0.580131
F2    F     F_    0.024588 0.929089 0.607200 -0.594118
F3    F     F_    0.567768 0.516466 0.661201 -0.580456
F4    F     F_    0.530251 0.431968 0.612097 -0.583765
F5    F     F_    0.695156 0.182620 0.881191 -0.572103
F6    F     F_    0.687198 0.795987 0.846984 -0.611489
F7    F     F_    0.190343 0.697789 0.857890 -0.579689
F8    F     F_    0.337586 0.225195 0.845950 -0.542360
F9    F     F_    0.762469 0.184435 0.060984 -0.626195
F10   F     F_    0.740257 0.829658 0.011678 -0.635436
F11   F     F_    0.255068 0.670664 0.029679 -0.619328
F12   F     F_    0.210272 0.269692 0.804205 -0.693168
N49   N     N_R   0.094835 0.760294 0.916424 0.296583
O33   O     O_R   0.046068 0.738161 0.819321 -0.102436
O34   O     O_R   0.052531 0.769442 0.962230 -0.386614
N50   N     N_R   0.270661 0.130968 0.872348 0.311777
O35   O     O_R   0.351571 0.126467 0.889518 -0.120793
O36   O     O_R   0.215705 0.088521 0.834696 -0.171945
N51   N     N_R   0.597944 0.267603 0.849282 0.321870
O37   O     O_R   0.594716 0.267236 0.760866 -0.098309
O38   O     O_R   0.520307 0.261161 0.839330 -0.209164
N52   N     N_R   0.590653 0.736204 0.903023 0.289044
O39   O     O_R   0.545520 0.743007 0.797770 -0.133099
O40   O     O_R   0.542765 0.736490 0.943336 -0.376352
F13   F     F_    0.303753 0.759831 0.818874 -0.579699
F14   F     F_    0.465566 0.201716 0.053345 -0.540387
F15   F     F_    0.760552 0.254467 0.807881 -0.582779
F16   F     F_    0.815170 0.736828 0.830510 -0.570160
N53   N     N_R   0.182236 0.827940 0.791114 0.328087
O41   O     O_R   0.130311 0.784685 0.747289 -0.139893
O42   O     O_R   0.171133 0.866490 0.724673 -0.122275
N54   N     N_R   0.393906 0.121707 0.099410 0.297159
O43   O     O_R   0.343023 0.078404 0.078261 -0.307857
O44   O     O_R   0.483514 0.113964 0.152260 -0.138401
N55   N     N_R   0.713155 0.360324 0.816336 0.316322
O45   O     O_R   0.691178 0.339997 0.724081 -0.111714
O46   O     O_R   0.693558 0.412062 0.814328 -0.194021
N56   N     N_R   0.698140 0.663281 0.803339 0.322691
O47   O     O_R   0.690361 0.618652 0.751158 -0.126391
O48   O     O_R   0.647717 0.705125 0.744794 -0.133176
N57   N     N_R   0.404664 0.864246 0.141786 0.308763
O49   O     O_R   0.481896 0.863955 0.149580 -0.249942
O50   O     O_R   0.380546 0.909333 0.165267 -0.212438
N58   N     N_R   0.175414 0.245933 0.075735 0.300233
O51   O     O_R   0.216311 0.279259 0.159174 -0.190508
O52   O     O_R   0.090745 0.230629 0.036506 -0.418258
N59   N     N_R   0.899330 0.347328 0.201772 0.320138
O53   O     O_R   0.955206 0.376745 0.192273 -0.197132
O54   O     O_R   0.924127 0.340006 0.301191 -0.114669
N60   N     N_R   0.908618 0.641515 0.162282 0.303630
O55   O     O_R   0.987579 0.642768 0.174040 -0.249362
O56   O     O_R   0.889137 0.597826 0.194561 -0.272924
N61   N     N_R   0.312744 0.881947 0.924374 0.262554
O57   O     O_R   0.374361 0.887987 0.904185 -0.220819
O58   O     O_R   0.274196 0.926239 0.929439 -0.248415
N62   N     N_R   0.382989 0.184154 0.213348 0.273648
O59   O     O_R   0.427270 0.145478 0.286568 -0.215048
O60   O     O_R   0.378156 0.231974 0.247810 -0.270317
N63   N     N_R   0.862499 0.374831 0.981374 0.251182
O61   O     O_R   0.940869 0.367240 0.993371 -0.289768
O62   O     O_R   0.846976 0.423261 0.004405 -0.210310
N64   N     N_R   0.832570 0.617330 0.951489 0.263470
O63   O     O_R   0.800005 0.572891 0.965360 -0.248874
O64   O     O_R   0.895286 0.611360 0.932959 -0.208800
F17   F     F_    0.418880 0.930713 0.373322 -0.510962
F18   F     F_    0.381334 0.085823 0.552300 -0.457873
F19   F     F_    0.918000 0.437352 0.365173 -0.527230
F20   F     F_    0.880259 0.584315 0.558129 -0.464841
F21   F     F_    0.598652 0.009185 0.485247 -0.596752
F22   F     F_    0.571073 0.095800 0.564436 -0.625688
F23   F     F_    0.099618 0.513181 0.486206 -0.596001
F24   F     F_    0.069261 0.597876 0.568793 -0.638955
F25   F     F_    0.583817 0.924866 0.531957 -0.572759
F26   F     F_    0.552075 0.085010 0.698465 -0.539550
F27   F     F_    0.082587 0.427850 0.526822 -0.568150
F28   F     F_    0.052032 0.583689 0.703447 -0.543650
N65   N     N_R   0.393310 0.905046 0.547259 0.292315
O65   O     O_R   0.440478 0.873149 0.526951 -0.163666
O66   O     O_R   0.333061 0.882338 0.558799 -0.168558
N66   N     N_R   0.370879 0.984476 0.622933 0.297884
O67   O     O_R   0.291550 0.010055 0.561429 -0.181350
O68   O     O_R   0.395954 0.966740 0.718266 -0.211411
N67   N     N_R   0.895619 0.403865 0.542195 0.285425
O69   O     O_R   0.940933 0.374561 0.515521 -0.168869
O70   O     O_R   0.838582 0.378581 0.556127 -0.186634
N68   N     N_R   0.871600 0.480423 0.622678 0.297147
O71   O     O_R   0.793002 0.506950 0.564103 -0.179900
O72   O     O_R   0.896828 0.460345 0.716577 -0.237132
F29   F     F_    0.986592 0.100567 0.276462 -0.648405
F30   F     F_    0.971162 0.902429 0.267088 -0.652196
F31   F     F_    0.475351 0.599779 0.266567 -0.649662
F32   F     F_    0.471796 0.401644 0.266329 -0.652801
F33   F     F_    0.246562 0.904283 0.345033 -0.549616
F34   F     F_    0.244204 0.095093 0.345692 -0.519263
F35   F     F_    0.746272 0.404300 0.344501 -0.544918
F36   F     F_    0.742542 0.594791 0.346271 -0.537101
F37   F     F_    0.057020 0.864418 0.802147 -0.614638
F38   F     F_    0.054010 0.138388 0.801789 -0.649754
F39   F     F_    0.560537 0.368907 0.802484 -0.605280
F40   F     F_    0.563007 0.630351 0.803313 -0.608602
F41   F     F_    0.248933 0.141512 0.197496 -0.586708
F42   F     F_    0.255404 0.863668 0.197876 -0.597454
F43   F     F_    0.753184 0.636821 0.199677 -0.641533
F44   F     F_    0.749795 0.358395 0.196373 -0.591034

loop_
_geom_bond_atom_site_label_1
_geom_bond_atom_site_label_2
_geom_bond_distance
_ccdc_geom_bond_type
C106  C108  1.603903 S    
C27   N19   1.327983 A    
N33   O2    1.300648 A    
C78   C82   1.556650 S    
C104  F24   1.389589 S    
C22   C110  1.471683 S    
C29   C43   1.383920 A    
N61   O57   1.302904 A    
N4    N7    1.393315 A    
C74   F14   1.387431 S    
C68   F12   1.391910 S    
C63   F1    1.386875 S    
C64   F3    1.388060 S    
N21   Ni5   1.895001 S    
C57   C59   1.626003 S    
C72   N52   1.479528 S    
C71   N51   1.473193 S    
C30   N22   1.327070 A    
C109  C111  1.549046 S    
C52   C60   1.599066 S    
C74   H38   1.108093 S    
C4    N4    1.325662 A    
C89   N61   1.485468 S    
C51   N35   1.480874 S    
C100  C108  1.577901 S    
C11   C22   1.396488 A    
C77   C81   1.551051 S    
C43   C61   1.513128 S    
C33   C45   1.398050 A    
C57   N45   1.496291 S    
N19   N20   1.394571 A    
C35   C47   1.404965 A    
N44   O24   1.304834 A    
N42   O19   1.300421 A    
H46   C111  1.112572 S    
C6    C17   1.378518 A    
N48   O32   1.298608 A    
N37   O10   1.300810 A    
N2    N5    1.393315 A    
C9    H9    1.079857 S    
N64   O64   1.302956 A    
C66   F10   1.390548 S    
C11   H11   1.080307 S    
C54   N38   1.480911 S    
C12   H12   1.075704 S    
C100  F20   1.384075 S    
C11   N11   1.325289 A    
C105  C111  1.563729 S    
N15   N16   1.394571 A    
C73   H37   1.111266 S    
C16   F32   1.350321 S    
C53   N41   1.494297 S    
C104  C110  1.565592 S    
C8    H8    1.079512 S    
C5    N5    1.321845 A    
C74   C90   1.577711 S    
C58   C64   1.567225 S    
N54   O43   1.301679 A    
C98   H42   1.113053 S    
N17   Ni1   1.895581 S    
C31   N23   1.330008 A    
N52   O40   1.302280 A    
N60   O55   1.302420 A    
C51   C60   1.579542 S    
C40   F44   1.344668 S    
C97   C107  1.568957 S    
C40   N32   1.323040 A    
C52   N36   1.476738 S    
N29   Ni2   1.897641 S    
C58   N48   1.495073 S    
C41   C107  1.497609 S    
N8    Ni8   1.897644 S    
N27   Ni8   1.891376 S    
C14   F30   1.349742 S    
C73   C89   1.574555 S    
C52   C56   1.610552 S    
N5    Ni5   1.894680 S    
C64   F4    1.380300 S    
C27   C42   1.384238 A    
N58   O52   1.302051 A    
C87   C95   1.610903 S    
C88   C96   1.601613 S    
N21   N22   1.394571 A    
C58   C60   1.626764 S    
C61   C63   1.589646 S    
C3    N3    1.329203 A    
C78   C96   1.549216 S    
C30   C43   1.387078 A    
N24   Ni8   1.897851 S    
N3    Ni3   1.895718 S    
N23   Ni7   1.895001 S    
C72   H22   1.116607 S    
C33   N25   1.323960 A    
C110  C112  1.548017 S    
C101  C109  1.554463 S    
C35   N27   1.323001 A    
C100  H44   1.113040 S    
C93   H35   1.102480 S    
N56   O48   1.298164 A    
C101  F21   1.384533 S    
C103  F23   1.386336 S    
N9    Ni6   1.891354 S    
C46   C86   1.500600 S    
N59   O54   1.301928 A    
C21   C109  1.471956 S    
N11   Ni8   1.891354 S    
C36   F40   1.347692 S    
C67   F7    1.383577 S    
C32   H16   1.067898 S    
C49   C53   1.571932 S    
N38   O12   1.299508 A    
N49   O33   1.300326 A    
C92   N64   1.485261 S    
N25   Ni6   1.891376 S    
N65   O66   1.302896 A    
C69   H23   1.116715 S    
C79   H31   1.114969 S    
C106  C112  1.560327 S    
C74   C84   1.558385 S    
N50   O35   1.301827 A    
C23   C59   1.503907 S    
C102  C109  1.562915 S    
H45   C111  1.111340 S    
N62   O60   1.298908 A    
C33   F37   1.345091 S    
N53   O41   1.297034 A    
N6    Ni6   1.897644 S    
C75   F15   1.381610 S    
C7    C20   1.375489 A    
C8    C19   1.371157 A    
N41   O17   1.299441 A    
N20   Ni4   1.891352 S    
C30   H14   1.069272 S    
C103  C110  1.553067 S    
C97   F17   1.385605 S    
H47   C112  1.111331 S    
C85   C93   1.598878 S    
N68   O71   1.297531 A    
H48   C112  1.112749 S    
C14   C23   1.400084 A    
C103  F27   1.387791 S    
C98   C102  1.529698 S    
C80   H32   1.115571 S    
N40   O16   1.300385 A    
C67   C69   1.529569 S    
C29   H13   1.073493 S    
C65   C71   1.534428 S    
C49   N33   1.481216 S    
N32   Ni3   1.894680 S    
C66   C72   1.523826 S    
C96   N60   1.478868 S    
N57   O49   1.302133 A    
C42   C108  1.498861 S    
C66   F6    1.384024 S    
C78   H30   1.115427 S    
N28   Ni7   1.895717 S    
C71   C87   1.603884 S    
N2    Ni2   1.891375 S    
N26   N29   1.393315 A    
C10   H10   1.076323 S    
N36   O8    1.299077 A    
N63   O61   1.302505 A    
C67   F11   1.391043 S    
C62   C64   1.590613 S    
C49   H17   1.097908 S    
N48   O31   1.300420 A    
C79   H27   1.110096 S    
C51   H19   1.095838 S    
N4    Ni4   1.891375 S    
C36   N28   1.329270 A    
C91   N55   1.490120 S    
N66   O67   1.297687 A    
N51   O37   1.299896 A    
C76   C92   1.579185 S    
N15   Ni4   1.897852 S    
C92   N56   1.476242 S    
C6    N6    1.324549 A    
C75   C91   1.598769 S    
N23   N24   1.394571 A    
C80   H28   1.108166 S    
C65   C81   1.557646 S    
N12   Ni7   1.895583 S    
C77   H29   1.109677 S    
N17   N18   1.394571 A    
C97   H41   1.115216 S    
C3    C19   1.381599 A    
N46   O27   1.299662 A    
C68   F8    1.386355 S    
C56   N40   1.482488 S    
C54   N42   1.498903 S    
C90   N62   1.482383 S    
C16   N16   1.331912 A    
C53   C61   1.641814 S    
N34   O3    1.301670 A    
C56   N44   1.499813 S    
N55   O45   1.301063 A    
N35   O6    1.300805 A    
N7    Ni7   1.894680 S    
C37   N29   1.320234 A    
C9    N9    1.324563 A    
C36   C48   1.405043 A    
C39   N31   1.319695 A    
C50   C59   1.596740 S    
C105  N66   1.477415 S    
C37   F41   1.343374 S    
N13   N14   1.394571 A    
N11   N12   1.394571 A    
C39   F43   1.348264 S    
N42   O20   1.304674 A    
N37   O9    1.302404 A    
C7    H7    1.078372 S    
C56   C62   1.632108 S    
C1    H1    1.079875 S    
C88   C92   1.619430 S    
N22   Ni6   1.897851 S    
C3    H3    1.078830 S    
C4    C20   1.374051 A    
C99   C103  1.522774 S    
N47   O29   1.295902 A    
C20   C83   1.471839 S    
C97   C101  1.522741 S    
C104  F28   1.388927 S    
C79   C93   1.550782 S    
C100  C104  1.534354 S    
C54   C61   1.628900 S    
C102  F22   1.389974 S    
C26   C41   1.383667 A    
C53   N37   1.494536 S    
C80   C84   1.550762 S    
C34   C46   1.408573 A    
C96   H34   1.103701 S    
C45   C85   1.501090 S    
N31   Ni4   1.897641 S    
C27   F35   1.349818 S    
N60   O56   1.300448 A    
C48   C88   1.503210 S    
C69   N49   1.482242 S    
N27   N32   1.393315 A    
C99   C108  1.568768 S    
N61   O58   1.302073 A    
C77   C95   1.522319 S    
N35   O5    1.302501 A    
C1    N1    1.321909 A    
C63   F2    1.377565 S    
C95   H33   1.116218 S    
C10   C21   1.380401 A    
C76   C82   1.556293 S    
N59   O53   1.298168 A    
C25   N17   1.327885 A    
C68   C84   1.560727 S    
C25   F33   1.350898 S    
C38   N30   1.324442 A    
C28   N20   1.328100 A    
C80   C94   1.523698 S    
N67   O69   1.301091 A    
C38   F42   1.347733 S    
N43   O22   1.303513 A    
N18   Ni2   1.891352 S    
N16   Ni3   1.895002 S    
C106  N68   1.477991 S    
N19   Ni3   1.895581 S    
N44   O23   1.299379 A    
N1    Ni1   1.895718 S    
C98   F18   1.384813 S    
C85   C89   1.622101 S    
N39   O13   1.302981 A    
C86   C94   1.586105 S    
C93   N57   1.476615 S    
N64   O63   1.302352 A    
C90   N54   1.485549 S    
C73   C83   1.558989 S    
N30   Ni1   1.894680 S    
C68   C70   1.559079 S    
C5    H5    1.078225 S    
C35   F39   1.348352 S    
C70   C86   1.597547 S    
C78   H26   1.109784 S    
N51   O38   1.302300 A    
C13   F29   1.352126 S    
C5    C18   1.374993 A    
N65   O65   1.301462 A    
C9    C21   1.394212 A    
C50   N34   1.477017 S    
C52   H20   1.090103 S    
C32   C44   1.383624 A    
C12   N12   1.313039 A    
N50   O36   1.301473 A    
C34   N26   1.321253 A    
N52   O39   1.299579 A    
C49   C59   1.581236 S    
C89   N53   1.478046 S    
C101  F25   1.387780 S    
N55   O46   1.303024 A    
N33   O1    1.302493 A    
C6    H6    1.079881 S    
C75   H39   1.108151 S    
N10   Ni5   1.895583 S    
C28   C42   1.381190 A    
C4    H4    1.079924 S    
C1    C17   1.373425 A    
C69   C85   1.589965 S    
C66   C82   1.558465 S    
C77   H25   1.112233 S    
C2    C18   1.376153 A    
C79   C83   1.554570 S    
C72   C88   1.592947 S    
C50   C54   1.606485 S    
C105  N65   1.480008 S    
C106  N67   1.479315 S    
N58   O51   1.301680 A    
N54   O44   1.303036 A    
C14   N14   1.331510 A    
N28   N31   1.393315 A    
N56   O47   1.301172 A    
C13   C23   1.391813 A    
N68   O72   1.302879 A    
N1    N6    1.393315 A    
C18   C81   1.473537 S    
N26   Ni5   1.895717 S    
N45   O26   1.296604 A    
C65   F9    1.389542 S    
N3    N8    1.393315 A    
C73   F13   1.385894 S    
N41   O18   1.303339 A    
C12   C22   1.378400 A    
C10   N10   1.313255 A    
C57   N46   1.494238 S    
C105  C107  1.603059 S    
C55   N43   1.489822 S    
C76   H40   1.111677 S    
C34   F38   1.350043 S    
C7    N7    1.321951 A    
C15   C24   1.395964 A    
C8    N8    1.320143 A    
C55   C62   1.641100 S    
C13   N13   1.314674 A    
C55   N39   1.492250 S    
C2    H2    1.078050 S    
C99   H43   1.114805 S    
C37   C46   1.398541 A    
C95   N59   1.478420 S    
C31   H15   1.074353 S    
C39   C48   1.399255 A    
C17   C82   1.472637 S    
N38   O11   1.303059 A    
N66   O68   1.302809 A    
N49   O34   1.302412 A    
C15   N15   1.321797 A    
C25   C41   1.380679 A    
C16   C24   1.396690 A    
C102  F26   1.389264 S    
C94   H36   1.116257 S    
N63   O62   1.303926 A    
C31   C44   1.390568 A    
N39   O14   1.300732 A    
N46   O28   1.300620 A    
N9    N10   1.394571 A    
C65   F5    1.390071 S    
N67   O70   1.303129 A    
C51   C55   1.575633 S    
C24   C60   1.509784 S    
N62   O59   1.303970 A    
N34   O4    1.299111 A    
N25   N30   1.393315 A    
N53   O42   1.301426 A    
C87   C91   1.621969 S    
C28   F36   1.356313 S    
C2    N2    1.321523 A    
C58   N47   1.495411 S    
C26   N18   1.326661 A    
C29   N21   1.323175 A    
C19   C84   1.471356 S    
C75   C81   1.563564 S    
C70   H24   1.099544 S    
C71   H21   1.117372 S    
C98   C107  1.577007 S    
N14   Ni1   1.895002 S    
C76   F16   1.386331 S    
C57   C63   1.565829 S    
C47   C87   1.505122 S    
C94   N58   1.480369 S    
N57   O50   1.300381 A    
C38   C45   1.403835 A    
N13   Ni2   1.897852 S    
C44   C62   1.520055 S    
C32   N24   1.327844 A    
C91   N63   1.481858 S    
N40   O15   1.302988 A    
C70   N50   1.476084 S    
C99   F19   1.379786 S    
C86   C90   1.625475 S    
C15   F31   1.351681 S    
C50   H18   1.089407 S    
N36   O7    1.302021 A    
N43   O21   1.296139 A    
C26   F34   1.355833 S    
C40   C47   1.402741 A    
N47   O30   1.303359 A    
N45   O25   1.303618 A    
C67   C83   1.560787 S    
