data_mof_unit_349.cif
_audit_creation_date              2012-12-10T17:54:48-0500
_audit_creation_method            fapswitch 2.2
_symmetry_space_group_name_H-M    P1
_symmetry_Int_Tables_number       1
_space_group_crystal_system       triclinic
_cell_length_a                    21.577365
_cell_length_b                    21.589972
_cell_length_c                    30.309021
_cell_angle_alpha                 90.162272
_cell_angle_beta                  90.11412
_cell_angle_gamma                 89.991469
_cell_volume                      14119.5152923

loop_
_atom_site_label
_atom_site_type_symbol
_atom_type_description
_atom_site_fract_x
_atom_site_fract_y
_atom_site_fract_z
_atom_type_partial_charge
C1    C     C_R   0.499822 0.119901 0.501178 1.084508
C2    C     C_R   0.999417 0.501482 0.772838 -0.027569
C3    C     C_R   0.949804 0.529514 0.841739 0.354402
C4    C     C_R   0.531935 0.951513 0.158116 0.359913
C5    C     C_R   0.048552 0.532942 0.158145 0.359223
C6    C     C_R   0.472831 0.049675 0.158452 0.360743
C7    C     C_R   0.951440 0.472226 0.158376 0.360563
C8    C     C_R   0.038525 0.544487 0.342471 0.347576
C9    C     C_R   0.544868 0.963054 0.342280 0.348251
C10   C     C_R   0.968523 0.453899 0.341757 0.353366
C11   C     C_R   0.455050 0.034274 0.342006 0.349713
C12   C     C_R   0.034376 0.455613 0.657980 0.358976
C13   C     C_R   0.501609 0.999937 0.227074 -0.031505
C14   C     C_R   0.547661 0.029482 0.658331 0.360330
C15   C     C_R   0.961769 0.544138 0.657701 0.355590
C16   C     C_R   0.454238 0.963545 0.657735 0.356300
C17   C     C_R   0.498730 0.999719 0.865166 -0.328585
C18   C     C_R   0.999971 0.501563 0.864970 -0.333026
C19   C     C_R   0.501878 0.000425 0.134963 -0.325016
C20   C     C_R   0.000017 0.502106 0.134926 -0.322510
C21   C     C_R   0.002831 0.499456 0.365329 -0.326977
C22   C     C_R   0.499897 0.998806 0.365316 -0.327729
C23   C     C_R   0.998467 0.499989 0.634655 -0.325495
C24   C     C_R   0.001246 0.501550 0.227064 -0.030526
C25   C     C_R   0.500602 0.997291 0.634775 -0.321005
C26   C     C_R   0.462064 0.955692 0.796138 0.026415
C27   C     C_R   0.953264 0.534641 0.795962 0.025780
C28   C     C_R   0.535841 0.042090 0.796147 0.024441
C29   C     C_R   0.046069 0.468808 0.795789 0.024363
C30   C     C_R   0.467419 0.045456 0.204137 0.024163
C31   C     C_R   0.956114 0.466754 0.204008 0.024455
C32   C     C_R   0.536522 0.955011 0.203957 0.025975
C33   C     C_R   0.045449 0.537193 0.203997 0.026972
C34   C     C_R   0.963373 0.458974 0.296157 0.023950
C35   C     C_R   0.002137 0.500687 0.273307 -0.025898
C36   C     C_R   0.459962 0.039057 0.296327 0.025708
C37   C     C_R   0.042041 0.541219 0.296582 0.027889
C38   C     C_R   0.541210 0.959201 0.296429 0.027610
C39   C     C_R   0.957758 0.540204 0.703520 0.026405
C40   C     C_R   0.457653 0.959660 0.703602 0.027914
C41   C     C_R   0.039516 0.460992 0.703610 0.023418
C42   C     C_R   0.542920 0.034779 0.703957 0.023425
C43   C     C_3   0.598995 0.194629 0.403218 0.151865
C44   C     C_3   0.567696 0.217842 0.360917 -0.323694
C45   C     C_3   0.615110 0.239992 0.327307 -0.981230
C46   C     C_R   0.500949 0.999409 0.273345 -0.025249
C47   C     C_3   0.194287 0.398627 0.404234 0.150849
C48   C     C_3   0.218014 0.426975 0.361174 -0.318038
C49   C     C_3   0.240515 0.377473 0.329070 -0.982419
C50   C     C_3   0.399818 0.804401 0.403601 0.151504
C51   C     C_3   0.430804 0.780407 0.361400 -0.322910
C52   C     C_3   0.383109 0.757621 0.327977 -0.982521
C53   C     C_3   0.804842 0.600850 0.404458 0.152718
C54   C     C_3   0.780181 0.572304 0.361546 -0.321482
C55   C     C_3   0.756228 0.621608 0.329953 -0.980706
C56   C     C_3   0.621189 0.812131 0.576113 0.104501
C57   C     C_R   0.998956 0.500981 0.726609 -0.030254
C58   C     C_3   0.632263 0.814760 0.626224 -0.314678
C59   C     C_3   0.691374 0.781744 0.641508 -0.954490
C60   C     C_3   0.186761 0.619695 0.576355 0.096540
C61   C     C_3   0.179413 0.630934 0.626185 -0.311876
C62   C     C_3   0.210088 0.690799 0.642567 -0.943518
C63   C     C_3   0.379101 0.188429 0.575796 0.108388
C64   C     C_3   0.367946 0.185610 0.625885 -0.318839
C65   C     C_3   0.312311 0.223819 0.641659 -0.936287
C66   C     C_3   0.813402 0.382779 0.578600 0.092933
C67   C     C_3   0.821064 0.374708 0.628679 -0.312916
C68   C     C_R   0.499827 0.997739 0.726844 -0.029927
C69   C     C_3   0.791445 0.315539 0.646716 -0.945728
C70   C     C_3   0.101388 0.694979 0.904229 0.148574
C71   C     C_3   0.069868 0.717487 0.861833 -0.328147
C72   C     C_3   0.117179 0.738877 0.827897 -0.977477
C73   C     C_3   0.694108 0.900461 0.903503 0.151009
C74   C     C_3   0.717678 0.929713 0.860707 -0.322237
C75   C     C_3   0.740239 0.880921 0.828076 -0.979280
C76   C     C_3   0.896440 0.303841 0.904961 0.150360
C77   C     C_3   0.926913 0.280193 0.862477 -0.329968
C78   C     C_3   0.878805 0.257399 0.829358 -0.976737
C79   C     C_R   0.422060 0.916425 0.772629 -0.201968
C80   C     C_3   0.304657 0.102658 0.905339 0.151269
C81   C     C_3   0.280382 0.074338 0.862250 -0.322480
C82   C     C_3   0.256729 0.123831 0.830700 -0.979190
C83   C     C_3   0.123722 0.311384 0.073836 0.115452
C84   C     C_3   0.136317 0.312840 0.123852 -0.319373
C85   C     C_3   0.191969 0.273809 0.138599 -0.942231
C86   C     C_3   0.687821 0.117076 0.079714 0.098396
C87   C     C_3   0.687296 0.124518 0.130214 -0.312384
C88   C     C_3   0.713476 0.186304 0.146794 -0.955081
C89   C     C_3   0.879190 0.688405 0.076167 0.103048
C90   C     C_R   0.910873 0.571447 0.772583 -0.200075
C91   C     C_3   0.868787 0.687061 0.126341 -0.317368
C92   C     C_3   0.808336 0.717779 0.141332 -0.954721
C93   C     C_3   0.311304 0.881092 0.078517 0.108153
C94   C     C_3   0.311884 0.874196 0.128977 -0.318837
C95   C     C_3   0.274558 0.818996 0.146110 -0.946990
C96   C     C_3   0.632636 0.334766 0.451494 -0.817142
C97   C     C_3   0.335803 0.366657 0.452931 -0.809413
C98   C     C_3   0.366132 0.665078 0.452818 -0.816062
C99   C     C_3   0.664157 0.633697 0.453923 -0.809124
C100  C     C_3   0.612046 0.647864 0.569452 -0.712928
C101  C     C_R   0.576589 0.080468 0.772855 -0.201828
C102  C     C_3   0.352785 0.613604 0.566790 -0.716530
C103  C     C_3   0.387535 0.352647 0.568565 -0.715051
C104  C     C_3   0.647158 0.386844 0.566152 -0.714367
C105  C     C_3   0.133586 0.835179 0.952982 -0.814617
C106  C     C_3   0.835634 0.867595 0.951693 -0.808719
C107  C     C_3   0.864762 0.164576 0.954636 -0.815636
C108  C     C_3   0.163809 0.134233 0.955029 -0.809028
C109  C     C_3   0.112430 0.148182 0.069474 -0.715017
C110  C     C_3   0.852329 0.112388 0.068592 -0.709422
C111  C     C_3   0.886853 0.852736 0.067694 -0.710831
C112  C     C_R   0.119905 0.500161 0.501084 1.082929
C113  C     C_R   0.088118 0.431617 0.772395 -0.199470
C114  C     C_3   0.147600 0.886248 0.066540 -0.710751
C115  C     C_3   0.523675 0.143088 0.875164 0.152358
C116  C     C_3   0.522392 0.194123 0.840266 -0.415968
C117  C     C_3   0.491313 0.252236 0.858963 -0.966314
C118  C     C_3   0.145429 0.492206 0.874689 0.152596
C119  C     C_3   0.194660 0.501559 0.838931 -0.415959
C120  C     C_3   0.248765 0.539860 0.857281 -0.963023
C121  C     C_3   0.471111 0.856819 0.876315 0.153304
C122  C     C_3   0.468431 0.803223 0.843254 -0.415881
C123  C     C_3   0.496765 0.744878 0.863584 -0.966163
C124  C     C_R   0.428881 0.086326 0.227512 -0.193161
C125  C     C_3   0.854648 0.514801 0.875531 0.155074
C126  C     C_3   0.801853 0.510999 0.841702 -0.415113
C127  C     C_3   0.746405 0.476306 0.861332 -0.962434
C128  C     C_3   0.522418 0.855614 0.123867 0.152175
C129  C     C_3   0.522847 0.801790 0.156919 -0.416411
C130  C     C_3   0.491532 0.744509 0.136617 -0.957973
C131  C     C_3   0.144202 0.525647 0.123645 0.152251
C132  C     C_3   0.198557 0.527467 0.156286 -0.417177
C133  C     C_3   0.256192 0.497675 0.135632 -0.961229
C134  C     C_3   0.485554 0.145369 0.125249 0.149074
C135  C     C_R   0.916152 0.427415 0.227282 -0.193838
C136  C     C_3   0.493477 0.194539 0.161374 -0.419156
C137  C     C_3   0.529490 0.250070 0.143289 -0.966630
C138  C     C_3   0.855240 0.483208 0.125217 0.148915
C139  C     C_3   0.806132 0.489943 0.161317 -0.420247
C140  C     C_3   0.749709 0.524874 0.143382 -0.965208
C141  C     C_3   0.042733 0.639779 0.378010 0.151328
C142  C     C_3   0.053520 0.694854 0.347226 -0.412860
C143  C     C_3   0.032127 0.755113 0.369329 -0.964447
C144  C     C_3   0.640748 0.960312 0.377102 0.150847
C145  C     C_3   0.694739 0.952325 0.344751 -0.413012
C146  C     C_R   0.574596 0.913818 0.227354 -0.193886
C147  C     C_3   0.755091 0.976243 0.365538 -0.963730
C148  C     C_3   0.971876 0.357166 0.374517 0.149039
C149  C     C_3   0.972836 0.307132 0.338555 -0.413754
C150  C     C_3   0.002907 0.247841 0.356281 -0.963604
C151  C     C_3   0.358426 0.034535 0.375383 0.149592
C152  C     C_3   0.306523 0.038070 0.340799 -0.412142
C153  C     C_3   0.246136 0.011451 0.359558 -0.960466
C154  C     C_3   0.034211 0.358524 0.625321 0.146205
C155  C     C_3   0.034531 0.309323 0.661732 -0.415081
C156  C     C_3   0.005528 0.249028 0.644616 -0.960180
C157  C     C_R   0.086334 0.575596 0.227542 -0.194431
C158  C     C_3   0.644112 0.022292 0.625490 0.147782
C159  C     C_3   0.693036 0.017506 0.661941 -0.420380
C160  C     C_3   0.750627 0.984201 0.644466 -0.966064
C161  C     C_3   0.957122 0.639772 0.623283 0.148901
C162  C     C_3   0.948801 0.693069 0.656299 -0.412929
C163  C     C_3   0.972622 0.753850 0.636500 -0.958734
C164  C     C_3   0.358723 0.963641 0.622612 0.151148
C165  C     C_3   0.303739 0.955702 0.653867 -0.415272
C166  C     C_3   0.244327 0.979702 0.632148 -0.964592
C167  C     C_R   0.920476 0.422756 0.272719 -0.202172
C168  C     C_R   0.424374 0.082446 0.273005 -0.202663
C169  C     C_R   0.084123 0.578169 0.273219 -0.201995
C170  C     C_R   0.577555 0.916455 0.273003 -0.202932
C171  C     C_R   0.913822 0.575067 0.726959 -0.196068
C172  C     C_R   0.500182 0.880105 0.501216 1.080955
C173  C     C_R   0.419263 0.918993 0.726977 -0.194967
C174  C     C_R   0.084030 0.426736 0.726908 -0.195783
C175  C     C_R   0.580887 0.076067 0.727398 -0.194956
C176  C     C_R   0.532147 0.214987 0.466471 0.390765
C177  C     C_R   0.215030 0.467145 0.466523 0.390491
C178  C     C_R   0.467277 0.784702 0.466778 0.391081
C179  C     C_R   0.784709 0.532748 0.466708 0.389108
C180  C     C_R   0.535265 0.783291 0.532867 0.327145
C181  C     C_R   0.216963 0.534891 0.532725 0.325695
C182  C     C_R   0.464776 0.216970 0.532660 0.325601
C183  C     C_R   0.880086 0.499854 0.501103 1.084079
C184  C     C_R   0.783236 0.465704 0.533063 0.328454
C185  C     C_R   0.033208 0.715037 0.966947 0.391859
C186  C     C_R   0.714921 0.967815 0.966433 0.390094
C187  C     C_R   0.965878 0.284547 0.967200 0.390710
C188  C     C_R   0.284666 0.033468 0.967070 0.390207
C189  C     C_R   0.036060 0.283285 0.032141 0.326994
C190  C     C_R   0.716887 0.034031 0.033484 0.327670
C191  C     C_R   0.964651 0.717002 0.032609 0.328101
C192  C     C_R   0.283308 0.965085 0.032756 0.328982
C193  C     C_R   0.498749 0.185904 0.500012 -0.269107
C194  C     C_R   0.999848 0.619912 0.001198 1.075286
C195  C     C_R   0.185908 0.501022 0.500020 -0.267063
C196  C     C_R   0.501186 0.814082 0.500153 -0.267325
C197  C     C_R   0.814059 0.499045 0.500173 -0.267311
C198  C     C_R   0.998930 0.685937 0.000094 -0.267237
C199  C     C_R   0.685854 0.000983 0.000322 -0.266298
C200  C     C_R   0.001070 0.314018 0.999890 -0.269773
C201  C     C_R   0.314051 0.999078 0.000158 -0.266773
C202  C     C_R   0.500120 0.998951 0.586975 1.020728
C203  C     C_R   0.999350 0.500039 0.586920 1.027683
C204  C     C_R   0.499955 0.999467 0.413065 1.041001
C205  C     C_R   0.619877 0.000159 0.001295 1.079644
C206  C     C_R   0.001167 0.499876 0.413070 1.039969
C207  C     C_R   0.000032 0.500827 0.087030 1.015080
C208  C     C_R   0.500676 0.000103 0.087028 1.015411
C209  C     C_R   0.999960 0.500568 0.912943 1.021896
C210  C     C_R   0.499457 0.999915 0.913011 1.034619
C211  C     C_R   0.534849 0.280305 0.467148 0.055206
C212  C     C_R   0.280333 0.464086 0.467379 0.056460
C213  C     C_R   0.464346 0.719417 0.467602 0.055599
C214  C     C_R   0.719448 0.536043 0.467722 0.056386
C215  C     C_R   0.534342 0.718396 0.533610 0.077833
C216  C     C_R   0.000164 0.380076 0.000950 1.077387
C217  C     C_R   0.281831 0.534487 0.533205 0.082087
C218  C     C_R   0.465486 0.281847 0.533297 0.078914
C219  C     C_R   0.718304 0.465942 0.533396 0.082119
C220  C     C_R   0.035750 0.780363 0.967571 0.054940
C221  C     C_R   0.780211 0.964783 0.967159 0.056917
C222  C     C_R   0.963127 0.219242 0.968101 0.055570
C223  C     C_R   0.219403 0.036575 0.968067 0.056556
C224  C     C_R   0.034699 0.218423 0.033252 0.076479
C225  C     C_R   0.781826 0.033794 0.033717 0.080748
C226  C     C_R   0.965278 0.781896 0.033116 0.078647
C227  C     C_R   0.380090 0.999855 0.001037 1.079600
C228  C     C_R   0.218318 0.965512 0.033218 0.077252
C229  C     C_R   0.499871 0.312923 0.499832 -0.231763
C230  C     C_R   0.312941 0.499654 0.499896 -0.231486
C231  C     C_R   0.499731 0.687068 0.500161 -0.230931
C232  C     C_R   0.687044 0.500556 0.500114 -0.231500
C233  C     C_R   0.000016 0.812940 0.999843 -0.231933
C234  C     C_R   0.812867 0.999757 0.999957 -0.233208
C235  C     C_R   0.999395 0.187012 0.000222 -0.230595
C236  C     C_R   0.187053 0.000537 0.000169 -0.230320
C237  C     C_R   0.379720 0.498937 0.499949 0.918439
C238  C     C_R   0.499221 0.998510 0.773077 -0.025970
C239  C     C_R   0.499088 0.620345 0.500082 0.921055
C240  C     C_R   0.620279 0.501169 0.500022 0.919115
C241  C     C_R   0.500834 0.379647 0.499975 0.922509
C242  C     C_R   0.879696 0.999026 0.999956 0.918972
C243  C     C_R   0.998987 0.120322 0.000102 0.922038
C244  C     C_R   0.120285 0.001061 0.000036 0.918511
C245  C     C_R   0.000826 0.879656 0.999964 0.920623
C246  C     C_R   0.530705 0.046829 0.841804 0.353153
C247  C     C_R   0.050279 0.474508 0.841454 0.356770
C248  C     C_R   0.466333 0.952368 0.841962 0.351714
H1    H     H_    0.391816 0.884181 0.789441 0.181578
H2    H     H_    0.393671 0.114516 0.289840 0.181875
H3    H     H_    0.294913 0.155868 0.821761 0.263385
H4    H     H_    0.148599 0.350784 0.058344 0.130852
H5    H     H_    0.143554 0.269937 0.057910 0.133760
H6    H     H_    0.143342 0.361752 0.134240 0.190472
H7    H     H_    0.094647 0.296178 0.141900 0.233238
H8    H     H_    0.220675 0.257419 0.110569 0.256508
H9    H     H_    0.175472 0.232680 0.157218 0.261832
H10   H     H_    0.221801 0.301525 0.161169 0.260445
H11   H     H_    0.647446 0.142415 0.065767 0.135550
H12   H     H_    0.728861 0.139274 0.065041 0.137838
H13   H     H_    0.116406 0.608564 0.290129 0.180399
H14   H     H_    0.638899 0.118965 0.142028 0.200898
H15   H     H_    0.714321 0.086265 0.145536 0.226208
H16   H     H_    0.726105 0.218172 0.119540 0.257280
H17   H     H_    0.755638 0.177793 0.167113 0.263184
H18   H     H_    0.678856 0.209717 0.168244 0.264480
H19   H     H_    0.854296 0.648548 0.061027 0.134416
H20   H     H_    0.858134 0.729787 0.061068 0.137676
H21   H     H_    0.869514 0.638095 0.137477 0.197811
H22   H     H_    0.908074 0.710451 0.143439 0.229947
H23   H     H_    0.776424 0.727618 0.113466 0.257492
H24   H     H_    0.607734 0.883973 0.289839 0.181153
H25   H     H_    0.818888 0.762137 0.158544 0.264318
H26   H     H_    0.784154 0.687133 0.165188 0.263700
H27   H     H_    0.350893 0.854436 0.064620 0.130512
H28   H     H_    0.270063 0.859622 0.063413 0.138093
H29   H     H_    0.360834 0.870343 0.140220 0.193555
H30   H     H_    0.293180 0.917140 0.144588 0.232298
H31   H     H_    0.261952 0.785764 0.119585 0.257880
H32   H     H_    0.231172 0.835727 0.161970 0.261904
H33   H     H_    0.301986 0.794055 0.171616 0.261674
H34   H     H_    0.550695 0.341213 0.414085 0.255994
H35   H     H_    0.880603 0.604424 0.710110 0.182537
H36   H     H_    0.664343 0.339051 0.422844 0.235569
H37   H     H_    0.653873 0.302115 0.475561 0.234356
H38   H     H_    0.628223 0.381271 0.466159 0.247512
H39   H     H_    0.341496 0.447348 0.414725 0.255803
H40   H     H_    0.347152 0.336124 0.424501 0.236073
H41   H     H_    0.300683 0.342790 0.473721 0.230702
H42   H     H_    0.378852 0.373383 0.471812 0.242851
H43   H     H_    0.447231 0.657841 0.414842 0.256359
H44   H     H_    0.334329 0.658733 0.424288 0.235782
H45   H     H_    0.344698 0.698949 0.475991 0.233879
H46   H     H_    0.387592 0.888019 0.710086 0.181669
H47   H     H_    0.371078 0.619588 0.468733 0.246279
H48   H     H_    0.657910 0.553188 0.415208 0.256269
H49   H     H_    0.652398 0.664254 0.425680 0.235931
H50   H     H_    0.699648 0.657486 0.474623 0.230915
H51   H     H_    0.621409 0.627017 0.472996 0.242492
H52   H     H_    0.553106 0.710287 0.601351 0.252303
H53   H     H_    0.618138 0.622717 0.601114 0.233550
H54   H     H_    0.654737 0.674538 0.563203 0.204039
H55   H     H_    0.608358 0.612839 0.543381 0.251355
H56   H     H_    0.290916 0.556434 0.600556 0.252817
H57   H     H_    0.116821 0.396889 0.710007 0.184178
H58   H     H_    0.379962 0.620329 0.597653 0.236467
H59   H     H_    0.325564 0.656134 0.560842 0.201244
H60   H     H_    0.386070 0.609323 0.539678 0.250859
H61   H     H_    0.446081 0.290449 0.600938 0.253976
H62   H     H_    0.381190 0.378183 0.600128 0.233708
H63   H     H_    0.344901 0.325884 0.562072 0.203554
H64   H     H_    0.391404 0.387302 0.542418 0.251570
H65   H     H_    0.708554 0.444335 0.600741 0.251413
H66   H     H_    0.617801 0.381587 0.595999 0.239017
H67   H     H_    0.674521 0.343966 0.562085 0.200017
H68   H     H_    0.613315 0.106177 0.710610 0.184337
H69   H     H_    0.615909 0.390129 0.537667 0.247213
H70   H     H_    0.052410 0.841475 0.914826 0.255844
H71   H     H_    0.165217 0.841859 0.924515 0.236018
H72   H     H_    0.155439 0.801526 0.976031 0.233541
H73   H     H_    0.128223 0.880579 0.969101 0.246578
H74   H     H_    0.841108 0.948988 0.914175 0.255702
H75   H     H_    0.846228 0.837389 0.922945 0.235823
H76   H     H_    0.800805 0.843629 0.972677 0.231303
H77   H     H_    0.879138 0.873840 0.970151 0.243584
H78   H     H_    0.944924 0.157378 0.915732 0.256164
H79   H     H_    0.626454 0.153047 0.393882 0.134369
H80   H     H_    0.832416 0.157537 0.926498 0.236054
H81   H     H_    0.843581 0.198653 0.977769 0.234520
H82   H     H_    0.870409 0.119422 0.970866 0.244952
H83   H     H_    0.157792 0.054306 0.915726 0.256203
H84   H     H_    0.151181 0.164927 0.927052 0.236149
H85   H     H_    0.199485 0.158169 0.975478 0.230524
H86   H     H_    0.121566 0.126968 0.974539 0.242596
H87   H     H_    0.053794 0.211228 0.100936 0.253992
H88   H     H_    0.119918 0.125292 0.101850 0.231828
H89   H     H_    0.154783 0.174274 0.061268 0.204509
H90   H     H_    0.634333 0.225595 0.417657 0.159765
H91   H     H_    0.107714 0.111368 0.044827 0.254829
H92   H     H_    0.792555 0.051661 0.101515 0.248445
H93   H     H_    0.879043 0.118524 0.099695 0.234774
H94   H     H_    0.824618 0.154678 0.063146 0.202135
H95   H     H_    0.886076 0.109347 0.041682 0.250383
H96   H     H_    0.945767 0.791368 0.100699 0.250780
H97   H     H_    0.880657 0.879216 0.098877 0.234681
H98   H     H_    0.844248 0.825644 0.061773 0.203724
H99   H     H_    0.890595 0.886594 0.040980 0.248884
H100  H     H_    0.208129 0.945360 0.100677 0.251578
H101  H     H_    0.540212 0.179411 0.346200 0.230293
H102  H     H_    0.121801 0.878603 0.097757 0.235028
H103  H     H_    0.174761 0.844108 0.059334 0.200873
H104  H     H_    0.113176 0.890829 0.040164 0.251090
H105  H     H_    0.541942 0.163085 0.906467 0.174763
H106  H     H_    0.474882 0.128669 0.881401 0.135521
H107  H     H_    0.570195 0.205879 0.829796 0.233916
H108  H     H_    0.495487 0.177707 0.811234 0.222504
H109  H     H_    0.446015 0.240446 0.874217 0.255064
H110  H     H_    0.483083 0.286294 0.832239 0.272038
H111  H     H_    0.521556 0.273830 0.884445 0.262357
H112  H     H_    0.875911 0.598685 0.789481 0.181758
H113  H     H_    0.534835 0.255902 0.368240 0.221297
H114  H     H_    0.168839 0.475146 0.905090 0.171433
H115  H     H_    0.125162 0.538494 0.882654 0.137522
H116  H     H_    0.212509 0.456048 0.827287 0.232998
H117  H     H_    0.173649 0.526888 0.810734 0.222433
H118  H     H_    0.231395 0.583036 0.873235 0.252547
H119  H     H_    0.280856 0.552975 0.830241 0.271536
H120  H     H_    0.274905 0.512327 0.882118 0.262100
H121  H     H_    0.453829 0.839907 0.908679 0.177615
H122  H     H_    0.520757 0.869731 0.880848 0.132800
H123  H     H_    0.419723 0.793400 0.833748 0.234511
H124  H     H_    0.643356 0.278321 0.341353 0.270265
H125  H     H_    0.495267 0.815901 0.813392 0.221578
H126  H     H_    0.542930 0.755255 0.878193 0.255647
H127  H     H_    0.502605 0.708612 0.837918 0.271884
H128  H     H_    0.465927 0.726723 0.889884 0.262143
H129  H     H_    0.834934 0.530805 0.907534 0.175207
H130  H     H_    0.872920 0.466894 0.880716 0.132914
H131  H     H_    0.786747 0.558294 0.831966 0.233376
H132  H     H_    0.818372 0.485458 0.812057 0.221410
H133  H     H_    0.761557 0.431345 0.875724 0.253992
H134  H     H_    0.711276 0.466757 0.835316 0.271107
H135  H     H_    0.590584 0.257094 0.297509 0.268251
H136  H     H_    0.724511 0.504859 0.887692 0.261262
H137  H     H_    0.538813 0.837740 0.091457 0.178100
H138  H     H_    0.473284 0.870995 0.119467 0.126455
H139  H     H_    0.571329 0.789645 0.166091 0.234708
H140  H     H_    0.496795 0.815848 0.186937 0.220075
H141  H     H_    0.445420 0.756926 0.122566 0.258887
H142  H     H_    0.484616 0.708334 0.162241 0.269903
H143  H     H_    0.521206 0.724931 0.109960 0.260821
H144  H     H_    0.161076 0.542301 0.091069 0.178905
H145  H     H_    0.129973 0.476210 0.119398 0.127675
H146  H     H_    0.645986 0.201164 0.317564 0.263344
H147  H     H_    0.209627 0.576157 0.165462 0.235150
H148  H     H_    0.185764 0.501102 0.186389 0.220145
H149  H     H_    0.244617 0.451436 0.121441 0.258049
H150  H     H_    0.292911 0.491473 0.161016 0.270629
H151  H     H_    0.274562 0.527903 0.108966 0.261475
H152  H     H_    0.466845 0.168233 0.095194 0.172709
H153  H     H_    0.532508 0.127462 0.116831 0.134530
H154  H     H_    0.447509 0.210551 0.173276 0.233957
H155  H     H_    0.519924 0.174332 0.189317 0.222226
H156  H     H_    0.572807 0.234453 0.126748 0.263526
H157  H     H_    0.152311 0.371173 0.395698 0.130850
H158  H     H_    0.542178 0.282128 0.170589 0.271176
H159  H     H_    0.500510 0.275558 0.118990 0.262861
H160  H     H_    0.832547 0.464221 0.095077 0.173088
H161  H     H_    0.872162 0.530482 0.116938 0.134520
H162  H     H_    0.791144 0.443643 0.173068 0.234381
H163  H     H_    0.825979 0.516617 0.189376 0.222352
H164  H     H_    0.764263 0.568654 0.127116 0.262715
H165  H     H_    0.717517 0.536568 0.170709 0.271441
H166  H     H_    0.724712 0.495615 0.118900 0.262768
H167  H     H_    0.059747 0.652618 0.411505 0.181300
H168  H     H_    0.224968 0.363855 0.419597 0.158363
H169  H     H_    0.991610 0.632269 0.380364 0.131081
H170  H     H_    0.103515 0.698929 0.338981 0.234324
H171  H     H_    0.026391 0.687709 0.316428 0.219831
H172  H     H_    0.984555 0.749770 0.382951 0.256101
H173  H     H_    0.031600 0.793422 0.344954 0.270860
H174  H     H_    0.064340 0.767633 0.396650 0.260744
H175  H     H_    0.655574 0.942403 0.409843 0.178095
H176  H     H_    0.632008 0.011077 0.380822 0.133280
H177  H     H_    0.700614 0.902652 0.335951 0.233386
H178  H     H_    0.684852 0.979411 0.314441 0.221091
H179  H     H_    0.179767 0.453549 0.345451 0.228731
H180  H     H_    0.748404 0.023543 0.379469 0.255912
H181  H     H_    0.792235 0.978430 0.340227 0.270520
H182  H     H_    0.770300 0.944615 0.392380 0.260802
H183  H     H_    0.952036 0.336682 0.405069 0.172384
H184  H     H_    0.020999 0.369865 0.381853 0.137391
H185  H     H_    0.924880 0.296456 0.327419 0.232445
H186  H     H_    0.000460 0.324083 0.310106 0.222682
H187  H     H_    0.048353 0.258458 0.372075 0.254493
H188  H     H_    0.010911 0.214443 0.328917 0.271204
H189  H     H_    0.972047 0.225866 0.381111 0.261568
H190  H     H_    0.256087 0.460192 0.367725 0.222559
H191  H     H_    0.340528 0.053780 0.407031 0.174798
H192  H     H_    0.368974 0.984409 0.380890 0.135175
H193  H     H_    0.298494 0.087028 0.330863 0.232399
H194  H     H_    0.320203 0.010310 0.311401 0.221504
H195  H     H_    0.254536 0.965061 0.374509 0.254951
H196  H     H_    0.210996 0.006171 0.332910 0.270311
H197  H     H_    0.227282 0.043173 0.385301 0.260850
H198  H     H_    0.054846 0.337952 0.594972 0.173074
H199  H     H_    0.984771 0.369479 0.617798 0.134190
H200  H     H_    0.082780 0.299873 0.672793 0.233593
H201  H     H_    0.278862 0.350325 0.344049 0.271239
H202  H     H_    0.006701 0.326368 0.690139 0.222146
H203  H     H_    0.959759 0.258393 0.628907 0.259688
H204  H     H_    0.998340 0.216165 0.672319 0.270405
H205  H     H_    0.036680 0.227012 0.619877 0.261566
H206  H     H_    0.666312 0.042083 0.595573 0.172682
H207  H     H_    0.629207 0.974386 0.616992 0.135995
H208  H     H_    0.706403 0.064342 0.673726 0.234612
H209  H     H_    0.673821 0.990521 0.689893 0.223118
H210  H     H_    0.737610 0.939760 0.628298 0.261250
H211  H     H_    0.782949 0.973968 0.672016 0.271920
H212  H     H_    0.257776 0.400089 0.298623 0.267767
H213  H     H_    0.774807 0.013850 0.620010 0.262671
H214  H     H_    0.938500 0.654814 0.590706 0.178841
H215  H     H_    0.008000 0.631891 0.619301 0.129421
H216  H     H_    0.899007 0.698607 0.664891 0.235061
H217  H     H_    0.975846 0.682670 0.686686 0.220182
H218  H     H_    0.020073 0.747505 0.622792 0.258136
H219  H     H_    0.974553 0.790514 0.662304 0.270161
H220  H     H_    0.941054 0.769428 0.609595 0.261016
H221  H     H_    0.344604 0.947016 0.589295 0.182604
H222  H     H_    0.368629 0.014183 0.619906 0.126585
H223  H     H_    0.606405 0.113267 0.789747 0.182712
H224  H     H_    0.201810 0.345927 0.320140 0.263718
H225  H     H_    0.297433 0.906123 0.662302 0.236829
H226  H     H_    0.312590 0.982586 0.684518 0.219102
H227  H     H_    0.251706 0.026783 0.618350 0.257895
H228  H     H_    0.206449 0.982135 0.656791 0.271474
H229  H     H_    0.229984 0.948013 0.605011 0.261570
H230  H     H_    0.372443 0.845920 0.394083 0.133473
H231  H     H_    0.364441 0.773774 0.418147 0.159953
H232  H     H_    0.458168 0.818563 0.346443 0.230210
H233  H     H_    0.463728 0.742488 0.368889 0.221299
H234  H     H_    0.354973 0.719561 0.342276 0.270448
H235  H     H_    0.407379 0.739946 0.298245 0.268143
H236  H     H_    0.352146 0.796260 0.318063 0.263294
H237  H     H_    0.846764 0.628049 0.395658 0.133092
H238  H     H_    0.774643 0.635901 0.420057 0.158351
H239  H     H_    0.123526 0.404860 0.789223 0.183153
H240  H     H_    0.818235 0.546143 0.345256 0.226093
H241  H     H_    0.742665 0.538654 0.368368 0.222499
H242  H     H_    0.717984 0.648282 0.345488 0.271346
H243  H     H_    0.738389 0.598865 0.299579 0.267504
H244  H     H_    0.794307 0.653625 0.320763 0.263009
H245  H     H_    0.646128 0.851392 0.560485 0.132529
H246  H     H_    0.641818 0.770288 0.561280 0.136848
H247  H     H_    0.633935 0.864101 0.636663 0.195824
H248  H     H_    0.592131 0.793765 0.643717 0.232245
H249  H     H_    0.722966 0.770345 0.613798 0.256718
H250  H     H_    0.400890 0.120738 0.210703 0.183654
H251  H     H_    0.678980 0.738014 0.658687 0.263742
H252  H     H_    0.716716 0.811604 0.665448 0.263340
H253  H     H_    0.148722 0.643934 0.558568 0.135900
H254  H     H_    0.229883 0.640741 0.564097 0.140766
H255  H     H_    0.128970 0.631741 0.634122 0.196320
H256  H     H_    0.200029 0.591332 0.644780 0.234287
H257  H     H_    0.215432 0.725584 0.615439 0.255108
H258  H     H_    0.257121 0.680057 0.656811 0.261843
H259  H     H_    0.180988 0.711748 0.669564 0.260093
H260  H     H_    0.354213 0.149193 0.559847 0.131329
H261  H     H_    0.882137 0.398907 0.210390 0.183867
H262  H     H_    0.358366 0.230186 0.561041 0.136761
H263  H     H_    0.361619 0.136318 0.635487 0.191876
H264  H     H_    0.409895 0.202457 0.643805 0.234847
H265  H     H_    0.278765 0.233645 0.614343 0.254618
H266  H     H_    0.328921 0.269018 0.655877 0.261132
H267  H     H_    0.287460 0.198004 0.668500 0.258885
H268  H     H_    0.851174 0.357210 0.561458 0.135364
H269  H     H_    0.770077 0.361242 0.566969 0.142121
H270  H     H_    0.871449 0.375161 0.636688 0.197653
H271  H     H_    0.799929 0.415062 0.646156 0.235261
H272  H     H_    0.603279 0.879982 0.210490 0.182493
H273  H     H_    0.785880 0.279120 0.620505 0.255742
H274  H     H_    0.744642 0.326720 0.661030 0.262163
H275  H     H_    0.821345 0.296557 0.673987 0.261526
H276  H     H_    0.129412 0.653736 0.895042 0.129685
H277  H     H_    0.136391 0.726414 0.918530 0.162156
H278  H     H_    0.042243 0.678841 0.847548 0.225902
H279  H     H_    0.037166 0.755775 0.868902 0.221234
H280  H     H_    0.145653 0.777325 0.841537 0.270130
H281  H     H_    0.092555 0.755571 0.798022 0.267503
H282  H     H_    0.147852 0.699757 0.818405 0.264488
H283  H     H_    0.119639 0.604788 0.210758 0.182160
H284  H     H_    0.652160 0.873116 0.894739 0.131569
H285  H     H_    0.724849 0.865404 0.918472 0.159207
H286  H     H_    0.679333 0.956494 0.845291 0.226488
H287  H     H_    0.755674 0.962904 0.867548 0.222384
H288  H     H_    0.778695 0.853582 0.842732 0.271135
H289  H     H_    0.757363 0.904192 0.797842 0.267597
H290  H     H_    0.701600 0.849451 0.818871 0.263410
H291  H     H_    0.868505 0.345094 0.895696 0.130876
H292  H     H_    0.861561 0.272922 0.919770 0.162244
H293  H     H_    0.953873 0.318549 0.847417 0.224067
H294  H     H_    0.889106 0.391432 0.289483 0.182819
H295  H     H_    0.960098 0.242367 0.869612 0.221568
H296  H     H_    0.851035 0.219156 0.843769 0.270324
H297  H     H_    0.902690 0.239972 0.799393 0.267409
H298  H     H_    0.847544 0.295973 0.819787 0.263481
H299  H     H_    0.346439 0.130213 0.896751 0.130392
H300  H     H_    0.274183 0.137385 0.921013 0.159674
H301  H     H_    0.318590 0.048276 0.846063 0.225222
H302  H     H_    0.242797 0.040662 0.868814 0.222692
H303  H     H_    0.218379 0.150445 0.846154 0.271678
H304  H     H_    0.239120 0.101267 0.800193 0.267180
N1    N     N_2   0.572783 0.312794 0.436315 -0.299970
N2    N     N_2   0.812570 0.926696 0.936251 -0.300297
N3    N     N_2   0.923810 0.186381 0.938113 -0.301168
N4    N     N_2   0.186737 0.075801 0.938104 -0.300715
N5    N     N_2   0.057149 0.186766 0.071842 -0.268275
N6    N     N_2   0.814749 0.056563 0.071780 -0.270715
N7    N     N_2   0.942219 0.814475 0.071172 -0.270279
N8    N     N_2   0.185592 0.941707 0.070892 -0.271116
N9    N     N_2   0.312761 0.425427 0.436860 -0.300570
N10   N     N_2   0.425680 0.686721 0.437099 -0.300509
N11   N     N_2   0.686852 0.574900 0.437479 -0.300419
N12   N     N_2   0.556723 0.686365 0.572057 -0.269746
N13   N     N_2   0.314455 0.558433 0.571092 -0.271195
N14   N     N_2   0.442849 0.314195 0.571618 -0.269891
N15   N     N_2   0.685557 0.441939 0.571013 -0.272737
N16   N     N_2   0.074213 0.812902 0.937105 -0.300934
O1    O     O_R   0.448270 0.091530 0.499990 -0.637138
O2    O     O_R   0.591530 0.051730 0.999990 -0.638943
O3    O     O_R   0.051730 0.408470 0.999990 -0.634435
O4    O     O_R   0.408470 0.948270 0.999990 -0.636467
O5    O     O_R   0.948270 0.408470 0.000010 -0.611268
O6    O     O_R   0.591530 0.948270 0.000010 -0.615482
O7    O     O_R   0.051730 0.591530 0.000010 -0.613753
O8    O     O_R   0.408470 0.051730 0.000010 -0.613939
O9    O     O_R   0.448270 0.999890 0.566070 -0.648049
O10   O     O_R   0.999890 0.551730 0.566070 -0.648303
O11   O     O_R   0.551730 0.000110 0.566070 -0.637618
O12   O     O_R   0.091530 0.551730 0.499990 -0.640950
O13   O     O_R   0.000110 0.448270 0.566070 -0.641988
O14   O     O_R   0.448270 0.000110 0.433930 -0.636635
O15   O     O_R   0.999890 0.448270 0.433930 -0.633196
O16   O     O_R   0.551730 0.999890 0.433930 -0.640600
O17   O     O_R   0.000110 0.551730 0.433930 -0.643417
O18   O     O_R   0.948270 0.499890 0.066070 -0.636712
O19   O     O_R   0.499890 0.051730 0.066070 -0.636726
O20   O     O_R   0.051730 0.500110 0.066070 -0.642141
O21   O     O_R   0.500110 0.948270 0.066070 -0.640202
O22   O     O_R   0.948270 0.500110 0.933930 -0.631363
O23   O     O_R   0.551730 0.908470 0.499990 -0.640375
O24   O     O_R   0.499890 0.948270 0.933930 -0.637600
O25   O     O_R   0.051730 0.499890 0.933930 -0.626845
O26   O     O_R   0.500110 0.051730 0.933930 -0.633170
O27   O     O_R   0.408290 0.499920 0.462700 -0.637184
O28   O     O_R   0.499920 0.591710 0.462700 -0.635980
O29   O     O_R   0.591710 0.500080 0.462700 -0.638230
O30   O     O_R   0.500080 0.408290 0.462700 -0.636208
O31   O     O_R   0.408290 0.500080 0.537300 -0.599631
O32   O     O_R   0.499920 0.408290 0.537300 -0.599314
O33   O     O_R   0.591710 0.499920 0.537300 -0.598629
O34   O     O_R   0.908470 0.448270 0.499990 -0.638284
O35   O     O_R   0.500080 0.591710 0.537300 -0.600686
O36   O     O_R   0.908290 0.999920 0.962700 -0.636510
O37   O     O_R   0.999920 0.091710 0.962700 -0.635863
O38   O     O_R   0.091710 0.000080 0.962700 -0.636766
O39   O     O_R   0.000080 0.908290 0.962700 -0.636565
O40   O     O_R   0.908290 0.000080 0.037300 -0.599631
O41   O     O_R   0.999920 0.908290 0.037300 -0.599646
O42   O     O_R   0.091710 0.999920 0.037300 -0.601991
O43   O     O_R   0.000080 0.091710 0.037300 -0.602548
O44   O     O_3   0.553829 0.174516 0.433312 -0.649796
O45   O     O_R   0.448270 0.908470 0.500010 -0.615900
O46   O     O_3   0.174932 0.446078 0.432992 -0.650314
O47   O     O_3   0.445171 0.824858 0.433649 -0.649801
O48   O     O_3   0.824505 0.553548 0.433123 -0.650305
O49   O     O_3   0.556689 0.818200 0.568578 -0.643621
O50   O     O_3   0.182626 0.555087 0.568962 -0.641632
O51   O     O_3   0.443593 0.182426 0.568389 -0.644667
O52   O     O_3   0.817913 0.446850 0.569525 -0.640697
O53   O     O_3   0.056541 0.674425 0.934420 -0.654053
O54   O     O_3   0.674755 0.947293 0.932782 -0.651641
O55   O     O_3   0.942043 0.324718 0.934675 -0.654233
O56   O     O_R   0.091530 0.448270 0.500010 -0.616338
O57   O     O_3   0.324522 0.055250 0.933838 -0.652345
O58   O     O_3   0.059110 0.318396 0.067244 -0.646016
O59   O     O_3   0.682352 0.053105 0.070044 -0.646075
O60   O     O_3   0.943627 0.682494 0.068454 -0.645277
O61   O     O_3   0.318592 0.944704 0.068628 -0.646048
O62   O     O_3   0.563518 0.093122 0.863667 -0.635154
O63   O     O_3   0.100144 0.446947 0.863033 -0.634461
O64   O     O_3   0.432447 0.907294 0.864030 -0.636554
O65   O     O_3   0.901137 0.558569 0.863707 -0.635366
O66   O     O_3   0.563599 0.904460 0.136070 -0.629937
O67   O     O_R   0.551730 0.091530 0.500010 -0.612861
O68   O     O_3   0.094673 0.565652 0.136088 -0.631467
O69   O     O_3   0.442750 0.097904 0.136817 -0.629625
O70   O     O_3   0.903632 0.441342 0.136646 -0.630588
O71   O     O_3   0.076566 0.586169 0.364922 -0.637685
O72   O     O_3   0.587289 0.925666 0.364470 -0.638091
O73   O     O_3   0.933917 0.408865 0.363409 -0.634911
O74   O     O_3   0.411383 0.070558 0.363931 -0.636725
O75   O     O_3   0.070353 0.411718 0.636111 -0.629947
O76   O     O_3   0.594040 0.062176 0.636707 -0.630748
O77   O     O_3   0.923563 0.585662 0.635437 -0.630932
O78   O     O_R   0.908470 0.551730 0.500010 -0.616479
O79   O     O_3   0.410828 0.927522 0.635388 -0.632718
O80   O     O_R   0.948270 0.591530 0.999990 -0.638176
Zn1   Zn    Zn3+2 0.430930 0.000000 0.500000 0.928658
Zn2   Zn    Zn3+2 0.500000 0.500000 0.549800 0.952852
Zn3   Zn    Zn3+2 1.000000 0.000000 0.950200 0.903448
Zn4   Zn    Zn3+2 1.000000 0.000000 0.049800 0.952049
Zn5   Zn    Zn3+2 1.000000 0.569070 0.500000 0.924664
Zn6   Zn    Zn3+2 0.569070 0.000000 0.500000 0.931599
Zn7   Zn    Zn3+2 1.000000 0.430930 0.500000 0.932234
Zn8   Zn    Zn3+2 0.930930 0.500000 0.000000 0.936445
Zn9   Zn    Zn3+2 0.500000 0.069070 0.000000 0.934917
Zn10  Zn    Zn3+2 0.069070 0.500000 0.000000 0.936092
Zn11  Zn    Zn3+2 0.500000 0.930930 0.000000 0.931777
Zn12  Zn    Zn3+2 0.500000 0.500000 0.450200 0.903054

loop_
_geom_bond_atom_site_label_1
_geom_bond_atom_site_label_2
_ccdc_geom_bond_type
C41   C174  A    
C126  C127  S    
C131  H145  S    
C219  N15   S    
C221  C234  A    
C48   H179  S    
C104  H66   S    
C79   C173  A    
C83   O58   S    
O29   Zn12  S    
C219  C232  A    
C81   H302  S    
O26   Zn9   S    
H43   N10   S    
C114  N8    S    
C158  H207  S    
C73   O54   S    
O17   Zn5   S    
O16   Zn6   S    
C102  H59   S    
C12   C23   A    
C188  O57   S    
C183  C197  S    
C226  C233  A    
C168  H2    S    
C2    C29   A    
C158  O76   S    
C138  H161  S    
C117  H109  S    
C185  C220  A    
C137  H158  S    
O23   Zn6   S    
C55   H242  S    
C127  H136  S    
C190  C225  A    
C166  H228  S    
C199  C205  S    
C27   C90   A    
C34   C35   A    
C74   H286  S    
C39   C171  A    
C162  H216  S    
C124  C168  A    
C76   H292  S    
C154  O75   S    
C128  H138  S    
C69   H275  S    
C67   H271  S    
C246  O62   S    
C80   H299  S    
C151  H191  S    
C45   H146  S    
C132  H148  S    
H48   N11   S    
C211  C229  A    
C105  H71   S    
O7    Zn10  S    
C97   N9    S    
O34   Zn7   S    
C180  C196  A    
O9    Zn1   S    
C91   H22   S    
C151  C152  S    
O20   Zn10  S    
C204  O14   A    
C121  H121  S    
O38   Zn3   S    
C93   O61   S    
C26   C248  A    
C190  C199  A    
O28   Zn12  S    
C10   C21   A    
O2    Zn9   S    
C145  C147  S    
C134  H152  S    
C51   C52   S    
C24   C35   A    
C13   C30   A    
C95   H31   S    
C93   H28   S    
C126  H132  S    
C17   C210  S    
C155  H200  S    
C92   H23   S    
O45   Zn1   S    
C17   C248  A    
C237  O27   A    
H34   N1    S    
C53   H237  S    
C86   O59   S    
C123  H126  S    
C1    C193  S    
C43   C44   S    
C218  C229  A    
C243  O43   A    
C8    O71   S    
H65   N15   S    
C139  C140  S    
C125  O65   S    
C96   H37   S    
C96   H36   S    
C131  O68   S    
C87   H14   S    
O32   Zn2   S    
C154  C155  S    
C4    C32   A    
C16   C40   A    
C72   H282  S    
C6    C30   A    
C186  C221  A    
C105  N16   S    
C160  H210  S    
C158  C159  S    
C186  C199  A    
C172  C196  S    
C63   H262  S    
C63   O51   S    
C34   C167  A    
O56   Zn7   S    
C59   H251  S    
C16   C25   A    
C201  C227  S    
C29   C113  A    
C143  H173  S    
C44   H101  S    
C177  C195  A    
C178  C213  A    
C117  H111  S    
C180  C215  A    
C188  C223  A    
C26   C79   A    
C144  C145  S    
C51   H233  S    
C240  O33   A    
C176  C211  A    
C146  H272  S    
C15   O77   S    
C187  C222  A    
C127  H134  S    
C187  C200  A    
C89   H20   S    
C242  O40   A    
C64   H263  S    
C208  O21   A    
C154  H198  S    
O80   Zn8   S    
C233  C245  S    
C241  O30   A    
H39   N9    S    
C58   H248  S    
C211  N1    S    
O67   Zn6   S    
C78   H296  S    
C113  H239  S    
C97   H41   S    
C148  C149  S    
C145  H177  S    
C133  H151  S    
C148  H183  S    
C99   H51   S    
C130  H141  S    
C56   H245  S    
C80   O57   S    
C180  O49   S    
O14   Zn1   S    
C204  O16   A    
O42   Zn4   S    
C155  C156  S    
C163  H219  S    
C116  H107  S    
C85   H9    S    
O36   Zn3   S    
C181  O50   S    
C121  O64   S    
C112  O56   A    
C111  H98   S    
O8    Zn9   S    
C183  O78   A    
C13   C32   A    
C98   H47   S    
C36   C168  A    
C128  C129  S    
C149  H185  S    
C110  H95   S    
C2    C57   A    
C5    C20   A    
C240  O29   A    
O19   Zn9   S    
C6    C19   A    
C5    O68   S    
C165  H226  S    
C78   H297  S    
C104  H69   S    
C62   H259  S    
C224  C235  A    
C37   C169  A    
C227  O8    A    
C103  H63   S    
C161  H214  S    
C245  O39   A    
C115  C116  S    
C143  H172  S    
C179  C214  A    
C115  H106  S    
C150  H188  S    
H83   N4    S    
C134  H153  S    
C247  O63   S    
C114  H104  S    
C179  O48   S    
C18   C247  A    
O24   Zn11  S    
C192  O61   S    
C47   C48   S    
C206  O17   A    
C55   H243  S    
C213  N10   S    
C95   H33   S    
C5    C33   A    
C90   C171  A    
C142  H170  S    
C36   C46   A    
C162  H217  S    
C164  H221  S    
C89   C91   S    
C75   H289  S    
C213  C231  A    
C59   H249  S    
C157  C169  A    
C131  H144  S    
C65   H266  S    
C174  H57   S    
C45   H135  S    
C111  N7    S    
C191  O60   S    
C125  H130  S    
C96   N1    S    
C107  H81   S    
C212  N9    S    
C100  N12   S    
C203  O10   A    
C220  C233  A    
C43   O44   S    
C207  O20   A    
C242  O36   A    
C91   C92   S    
C43   H90   S    
C241  O32   A    
C186  O54   S    
C178  C196  A    
C172  O23   A    
C134  O69   S    
C244  O42   A    
C209  O22   A    
C21   C206  S    
C98   H44   S    
C172  O45   A    
C99   H49   S    
O22   Zn8   S    
C217  C230  A    
C94   H30   S    
O11   Zn6   S    
C86   H11   S    
C83   C84   S    
H78   N3    S    
C115  O62   S    
C194  O7    A    
C147  H181  S    
C4    O66   S    
O12   Zn5   S    
C108  H84   S    
C28   C246  A    
H61   N14   S    
C123  H127  S    
C49   H224  S    
C86   H12   S    
C2    C27   A    
C144  H176  S    
H92   N6    S    
C234  C242  S    
C184  C197  A    
C66   H268  S    
O6    Zn11  S    
C176  C193  A    
C181  C217  A    
C19   C208  S    
C101  C175  A    
C98   H45   S    
C120  H119  S    
C97   H40   S    
C87   H15   S    
C110  H93   S    
C88   H16   S    
C129  C130  S    
C81   H301  S    
C54   C55   S    
C95   H32   S    
O41   Zn4   S    
C156  H204  S    
C160  H213  S    
C133  H149  S    
C216  O3    A    
C47   H157  S    
C151  O74   S    
C66   O52   S    
C136  C137  S    
C228  N8    S    
C76   H291  S    
C66   H269  S    
C102  H60   S    
C118  H114  S    
C22   C204  S    
C73   H285  S    
H52   N12   S    
C3    C27   A    
C10   O73   S    
C71   C72   S    
C114  H102  S    
C84   H6    S    
C102  N13   S    
C130  H142  S    
C216  O5    A    
C116  H108  S    
C122  H125  S    
C194  O80   A    
C166  H229  S    
C9    C38   A    
C200  C216  S    
C56   C58   S    
C183  O34   A    
C47   H168  S    
C203  O13   A    
C107  H80   S    
C74   H287  S    
C89   O60   S    
C224  N5    S    
C239  O28   A    
O27   Zn12  S    
C164  O79   S    
C156  H203  S    
C152  C153  S    
O25   Zn10  S    
C69   H274  S    
C135  C167  A    
C80   H300  S    
C230  C237  S    
C82   H304  S    
C20   C207  S    
C92   H25   S    
C3    O65   S    
C113  C174  A    
C217  N13   S    
C79   H1    S    
C105  H73   S    
C87   C88   S    
C11   O74   S    
C106  H75   S    
C12   O75   S    
C83   H4    S    
C73   C74   S    
C52   H235  S    
C65   H265  S    
H56   N13   S    
C191  C198  A    
C207  O18   A    
C214  C232  A    
C161  C162  S    
C189  C224  A    
C77   C78   S    
C135  H261  S    
C93   C94   S    
C111  H99   S    
C140  H164  S    
C205  O6    A    
C177  C212  A    
C164  C165  S    
C93   H27   S    
C140  H165  S    
C88   H17   S    
C32   C146  A    
C53   O48   S    
C124  H250  S    
C161  O77   S    
C107  H82   S    
C108  H86   S    
C100  H53   S    
C118  O63   S    
C50   H230  S    
C43   H79   S    
C225  N6    S    
C28   C238  A    
C202  O11   A    
C112  O12   A    
C28   C101  A    
C77   H293  S    
C152  H193  S    
C157  H283  S    
C69   H273  S    
C96   H38   S    
C192  C201  A    
C70   H276  S    
C70   C71   S    
O21   Zn11  S    
C148  O73   S    
C202  O9    A    
C47   O46   S    
C107  N3    S    
C48   H190  S    
C144  O72   S    
C49   H201  S    
C101  H223  S    
C210  O24   A    
C227  O4    A    
C158  H206  S    
C33   C157  A    
C38   C170  A    
C62   H257  S    
C102  H58   S    
C222  C235  A    
C136  H155  S    
C89   H19   S    
C117  H110  S    
C18   C209  S    
C84   C85   S    
C6    O69   S    
C31   C135  A    
C72   H280  S    
C151  H192  S    
C86   C87   S    
C137  H159  S    
C54   H241  S    
C58   C59   S    
C53   C54   S    
C166  H227  S    
C7    C20   A    
C60   C61   S    
C64   H264  S    
C154  H199  S    
C12   C41   A    
O37   Zn3   S    
C70   O53   S    
C1    O1    A    
C222  N3    S    
C229  C241  S    
C26   C238  A    
O5    Zn8   S    
C156  H205  S    
C128  H137  S    
C84   H7    S    
C50   C51   S    
C147  H182  S    
C190  O59   S    
C182  C193  A    
C44   H113  S    
C132  H147  S    
C56   O49   S    
C105  H72   S    
C133  H150  S    
C148  H184  S    
C109  H89   S    
C71   H279  S    
C48   C49   S    
C191  C226  A    
C82   H303  S    
C125  C126  S    
C159  H209  S    
C208  O19   A    
C206  O15   A    
C225  C234  A    
C73   H284  S    
C131  C132  S    
C104  N15   S    
C60   O50   S    
C44   C45   S    
O15   Zn7   S    
C162  C163  S    
O18   Zn8   S    
C11   C36   A    
C85   H8    S    
C111  H97   S    
C140  H166  S    
C138  O70   S    
C243  O37   A    
C128  O66   S    
C120  H118  S    
C126  H131  S    
C109  H88   S    
C119  C120  S    
C99   N11   S    
O13   Zn7   S    
O39   Zn3   S    
C24   C33   A    
C51   H232  S    
C165  H225  S    
C53   H238  S    
C64   C65   S    
C129  H140  S    
C63   H260  S    
C49   H212  S    
C41   C57   A    
C60   H253  S    
C127  H133  S    
C149  C150  S    
O78   Zn5   S    
C226  N7    S    
C13   C46   A    
C182  O51   S    
C77   H295  S    
C76   O55   S    
C115  H105  S    
C150  H189  S    
C14   C25   A    
C94   C95   S    
C181  C195  A    
C138  C139  S    
C72   H281  S    
O33   Zn2   S    
C220  N16   S    
C142  H171  S    
C104  H67   S    
C142  C143  S    
C108  H85   S    
C153  H195  S    
C164  H222  S    
C16   O79   S    
C185  O53   S    
C58   H247  S    
C59   H252  S    
C187  O55   S    
C143  H174  S    
C165  C166  S    
C245  O41   A    
C141  H167  S    
C139  H163  S    
C125  H129  S    
C81   C82   S    
C178  O47   S    
C112  C195  S    
O10   Zn5   S    
C14   O76   S    
C147  H180  S    
C141  H169  S    
C106  N2    S    
C90   H112  S    
C38   C46   A    
C83   H5    S    
C215  C231  A    
C52   H234  S    
C159  H208  S    
C35   C37   A    
C42   C175  A    
C110  N6    S    
C40   C173  A    
C176  O44   S    
C9    C22   A    
H70   N16   S    
C103  H64   S    
C39   C57   A    
C188  C201  A    
C177  O46   S    
C67   H270  S    
C116  C117  S    
C3    C18   A    
C231  C239  S    
C97   H42   S    
C194  C198  S    
C100  H54   S    
C145  H178  S    
C119  H117  S    
C60   H254  S    
C118  C119  S    
C4    C19   A    
C122  H123  S    
C159  C160  S    
C132  C133  S    
C237  O31   A    
C163  H220  S    
C78   H298  S    
O4    Zn11  S    
C85   H10   S    
C103  N14   S    
C223  N4    S    
H87   N5    S    
C75   H288  S    
C14   C42   A    
C15   C23   A    
C40   C68   A    
C50   O47   S    
C155  H202  S    
C109  H91   S    
H100  N8    S    
C42   C68   A    
C205  O2    A    
C29   C247  A    
C45   H124  S    
C61   C62   S    
H96   N7    S    
C239  O35   A    
C120  H120  S    
C71   H278  S    
C171  H35   S    
C169  H13   S    
C149  H186  S    
C110  H94   S    
C235  C243  S    
C184  C219  A    
C221  N2    S    
C9    O72   S    
C7    C31   A    
C74   C75   S    
C218  N14   S    
C82   H3    S    
C62   H258  S    
C100  H55   S    
C76   C77   S    
C25   C202  S    
C223  C236  A    
C161  H215  S    
C134  C136  S    
C179  C197  A    
C24   C31   A    
C175  H68   S    
C118  H115  S    
H74   N2    S    
C136  H154  S    
C63   C64   S    
C108  N4    S    
C23   C203  S    
C150  H187  S    
C67   C69   S    
C209  O25   A    
C1    O67   A    
C114  H103  S    
C98   N10   S    
O35   Zn2   S    
C212  C230  A    
C137  H156  S    
C129  H139  S    
C130  H143  S    
C55   H244  S    
C15   C39   A    
C160  H211  S    
C8    C21   A    
C121  C122  S    
O1    Zn1   S    
C10   C34   A    
C153  H197  S    
C61   H256  S    
C75   H290  S    
O3    Zn10  S    
C189  C200  A    
C153  H196  S    
C30   C124  A    
C182  C218  A    
C146  C170  A    
C167  H294  S    
C170  H24   S    
C185  C198  A    
O43   Zn4   S    
C61   H255  S    
O31   Zn2   S    
C92   H26   S    
C141  O71   S    
C119  H116  S    
C56   H246  S    
C65   H267  S    
C106  H76   S    
C215  N12   S    
C52   H236  S    
C184  O52   S    
C80   C81   S    
C91   H21   S    
O30   Zn12  S    
O40   Zn4   S    
C189  O58   S    
C103  H62   S    
C173  H46   S    
C11   C22   A    
C139  H162  S    
C236  C244  S    
C99   H50   S    
C68   C238  A    
C141  C142  S    
C94   H29   S    
C88   H18   S    
C121  H122  S    
C17   C246  A    
C106  H77   S    
C54   H240  S    
C214  N11   S    
C163  H218  S    
C66   C67   S    
C7    O70   S    
C244  O38   A    
C123  H128  S    
C109  N5    S    
C50   H231  S    
C228  C236  A    
C144  H175  S    
C192  C228  A    
C152  H194  S    
C8    C37   A    
C232  C240  S    
C70   H277  S    
C248  O64   S    
C138  H160  S    
C122  C123  S    
C210  O26   A    
