data_mof_unit_4249.cif
_audit_creation_date              2013-03-05T15:50:22-0500
_audit_creation_method            fapswitch 2.2
_symmetry_space_group_name_H-M    P1
_symmetry_Int_Tables_number       1
_space_group_crystal_system       triclinic
_cell_length_a                    18.453564
_cell_length_b                    25.800541
_cell_length_c                    18.179982
_cell_angle_alpha                 89.943031
_cell_angle_beta                  89.973354
_cell_angle_gamma                 90.070373
_cell_volume                      8655.69465215

loop_
_atom_site_label
_atom_site_type_symbol
_atom_site_description
_atom_site_fract_x
_atom_site_fract_y
_atom_site_fract_z
_atom_type_partial_charge
Zn1   Zn    Zn3+2 0.249990 0.293780 0.913250 0.986002
Zn2   Zn    Zn3+2 0.249990 0.706220 0.086750 0.979300
Zn3   Zn    Zn3+2 0.249990 0.706220 0.913250 1.001400
Zn4   Zn    Zn3+2 0.249990 0.293780 0.086750 0.956245
Zn5   Zn    Zn3+2 0.749990 0.793780 0.413250 0.987301
Zn6   Zn    Zn3+2 0.749990 0.206220 0.586750 0.964861
Zn7   Zn    Zn3+2 0.749990 0.206220 0.413250 1.009329
Zn8   Zn    Zn3+2 0.749990 0.793780 0.586750 0.993243
Zn9   Zn    Zn3+2 0.336760 0.206240 0.000000 0.987480
Zn10  Zn    Zn3+2 0.336760 0.793760 0.000000 0.977502
Zn11  Zn    Zn3+2 0.836760 0.706240 0.500000 0.977961
Zn12  Zn    Zn3+2 0.836760 0.293760 0.500000 0.956976
Zn13  Zn    Zn3+2 0.163250 0.206230 0.000000 0.978083
Zn14  Zn    Zn3+2 0.163250 0.793770 0.000000 0.989291
Zn15  Zn    Zn3+2 0.663250 0.706230 0.500000 0.989374
Zn16  Zn    Zn3+2 0.663250 0.293770 0.500000 0.983157
O1    O     O_3   0.249990 0.250010 0.000000 -0.484946
O2    O     O_3   0.249990 0.749990 0.000000 -0.494829
O3    O     O_3   0.749990 0.750010 0.500000 -0.495072
O4    O     O_3   0.749990 0.249990 0.500000 -0.491668
O5    O     O_R   0.335430 0.280650 0.146160 -0.596220
O6    O     O_R   0.335430 0.719350 0.853840 -0.610323
O7    O     O_R   0.335430 0.719350 0.146160 -0.610927
O8    O     O_R   0.335430 0.280650 0.853840 -0.617940
O9    O     O_R   0.835430 0.780650 0.646160 -0.615370
O10   O     O_R   0.835430 0.219350 0.353840 -0.572457
O11   O     O_R   0.835430 0.219350 0.646160 -0.599059
O12   O     O_R   0.835430 0.780650 0.353840 -0.604692
O13   O     O_R   0.164550 0.280640 0.853840 -0.669953
O14   O     O_R   0.164550 0.719360 0.146160 -0.651950
O15   O     O_R   0.164550 0.719360 0.853840 -0.640926
O16   O     O_R   0.164550 0.280640 0.146160 -0.667271
O17   O     O_R   0.664550 0.780640 0.353840 -0.651288
O18   O     O_R   0.664550 0.219360 0.646160 -0.669447
O19   O     O_R   0.664550 0.219360 0.353840 -0.654928
O20   O     O_R   0.664550 0.780640 0.646160 -0.643436
O21   O     O_R   0.396160 0.219380 0.914560 -0.644970
O22   O     O_R   0.396160 0.780620 0.085440 -0.659381
O23   O     O_R   0.396160 0.780620 0.914560 -0.645651
O24   O     O_R   0.396160 0.219380 0.085440 -0.653840
O25   O     O_R   0.896160 0.719380 0.414560 -0.661581
O26   O     O_R   0.896160 0.280620 0.585440 -0.654034
O27   O     O_R   0.896160 0.280620 0.414560 -0.644826
O28   O     O_R   0.896160 0.719380 0.585440 -0.643394
O29   O     O_R   0.103840 0.219370 0.085450 -0.649075
O30   O     O_R   0.103840 0.780630 0.914550 -0.636401
O31   O     O_R   0.103840 0.780630 0.085450 -0.609946
O32   O     O_R   0.103840 0.219370 0.914550 -0.612262
O33   O     O_R   0.603840 0.719370 0.585450 -0.634506
O34   O     O_R   0.603840 0.280630 0.414550 -0.625964
O35   O     O_R   0.603840 0.280630 0.585450 -0.607370
O36   O     O_R   0.603840 0.719370 0.414550 -0.609875
O37   O     O_R   0.310730 0.133160 0.000000 -0.657302
O38   O     O_R   0.310730 0.866840 0.000000 -0.655799
O39   O     O_R   0.810730 0.633160 0.500000 -0.653679
O40   O     O_R   0.810730 0.366840 0.500000 -0.678274
O41   O     O_R   0.249970 0.366860 0.060720 -0.654380
O42   O     O_R   0.249970 0.633140 0.939280 -0.626828
O43   O     O_R   0.249970 0.633140 0.060720 -0.646173
O44   O     O_R   0.249970 0.366860 0.939280 -0.634468
O45   O     O_R   0.749970 0.866860 0.560720 -0.634773
O46   O     O_R   0.749970 0.133140 0.439280 -0.614198
O47   O     O_R   0.749970 0.133140 0.560720 -0.663959
O48   O     O_R   0.749970 0.866860 0.439280 -0.635938
O49   O     O_R   0.189290 0.133150 0.000000 -0.617338
O50   O     O_R   0.189290 0.866850 0.000000 -0.617420
O51   O     O_R   0.689290 0.633150 0.500000 -0.618466
O52   O     O_R   0.689290 0.366850 0.500000 -0.610744
C1    C     C_R   0.390869 0.251970 0.139164 0.853085
C2    C     C_R   0.387861 0.751737 0.858307 0.921674
C3    C     C_R   0.388769 0.750400 0.141060 0.888780
C4    C     C_R   0.388655 0.249269 0.858995 0.925825
C5    C     C_R   0.887977 0.748383 0.641595 0.920822
C6    C     C_R   0.886776 0.251890 0.356618 0.831797
C7    C     C_R   0.888668 0.251222 0.642976 0.864644
C8    C     C_R   0.888737 0.749571 0.358937 0.888968
C9    C     C_R   0.105946 0.255397 0.865371 0.801069
C10   C     C_R   0.110926 0.750185 0.140541 0.796606
C11   C     C_R   0.111228 0.750607 0.859044 0.770957
C12   C     C_R   0.109852 0.250812 0.139970 0.776509
C13   C     C_R   0.610997 0.749694 0.359335 0.795828
C14   C     C_R   0.610970 0.250215 0.640629 0.796407
C15   C     C_R   0.610112 0.249091 0.360482 0.764926
C16   C     C_R   0.611227 0.749343 0.640981 0.772404
C17   C     C_R   0.250555 0.109087 0.991847 0.846347
C18   C     C_R   0.249802 0.890820 0.009484 0.808253
C19   C     C_R   0.749601 0.609514 0.489318 0.806785
C20   C     C_R   0.750852 0.391204 0.506392 0.824184
C21   C     C_R   0.250514 0.391408 0.999779 0.830688
C22   C     C_R   0.251253 0.608635 0.999997 0.819159
C23   C     C_R   0.750084 0.891353 0.499902 0.819059
C24   C     C_R   0.750004 0.108566 0.499878 0.822390
C25   C     C_3   0.243953 0.470495 0.077998 -0.444993
C26   C     C_3   0.199952 0.529752 0.942226 -0.422706
C27   C     C_3   0.231726 0.529187 0.075865 -0.413286
C28   C     C_3   0.191050 0.470741 0.951447 -0.451328
C29   C     C_3   0.717530 0.970397 0.570308 -0.415244
C30   C     C_3   0.700439 0.029340 0.440233 -0.429477
C31   C     C_3   0.728868 0.029037 0.574643 -0.465339
C32   C     C_3   0.709554 0.970316 0.433243 -0.424788
H1    H     H_    0.292450 0.461709 0.111865 0.221473
H2    H     H_    0.218863 0.538539 0.885462 0.226793
H3    H     H_    0.261117 0.547381 0.122478 0.221154
H4    H     H_    0.187634 0.452160 0.896466 0.205341
H5    H     H_    0.738959 0.952274 0.621312 0.224543
H6    H     H_    0.708306 0.047539 0.385413 0.219631
H7    H     H_    0.771039 0.036730 0.616304 0.210745
H8    H     H_    0.737386 0.961190 0.380560 0.227101
H9    H     H_    0.196412 0.452073 0.105337 0.178855
H10   H     H_    0.146142 0.548603 0.949230 0.165715
H11   H     H_    0.173234 0.537559 0.085216 0.180547
H12   H     H_    0.138536 0.462363 0.979264 0.171704
H13   H     H_    0.658401 0.961705 0.569285 0.178021
H14   H     H_    0.643735 0.038315 0.456877 0.168827
H15   H     H_    0.677680 0.047715 0.593232 0.182705
H16   H     H_    0.654997 0.951886 0.431071 0.168659
C33   C     C_3   0.329175 0.469507 0.966317 0.242013
C34   C     C_3   0.334086 0.530676 0.980252 0.212946
C35   C     C_3   0.834841 0.969155 0.493953 0.212761
C36   C     C_3   0.833261 0.030762 0.482359 0.224211
C37   C     C_3   0.254520 0.449083 0.998664 0.075060
C38   C     C_3   0.255234 0.551037 0.999405 0.067990
C39   C     C_3   0.753963 0.948922 0.499345 0.071485
C40   C     C_3   0.753930 0.050844 0.499093 0.069211
H17   H     H_    0.887377 0.176014 0.971310 0.153931
H18   H     H_    0.927378 0.621932 0.075802 0.150306
H19   H     H_    0.897160 0.675533 0.969243 0.161271
H20   H     H_    0.010467 0.078025 0.171636 0.181385
H21   H     H_    0.428541 0.878503 0.423619 0.149882
H22   H     H_    0.427655 0.126410 0.566371 0.156181
H23   H     H_    0.627989 0.410390 0.224251 0.168977
H24   H     H_    0.397747 0.824642 0.530668 0.160978
C41   C     C_R   0.081663 0.351168 0.770798 -0.151930
C42   C     C_R   0.120391 0.816939 0.266924 -0.151225
C43   C     C_R   0.141784 0.774275 0.706916 -0.160257
C44   C     C_R   0.057461 0.350360 0.199938 -0.167983
C45   C     C_R   0.619502 0.682156 0.233532 -0.151741
C46   C     C_R   0.630422 0.302509 0.778403 -0.130579
C47   C     C_R   0.519951 0.159632 0.336178 -0.161405
C48   C     C_R   0.641246 0.724877 0.792932 -0.161805
C49   C     C_R   0.071309 0.392628 0.723107 -0.149050
C50   C     C_R   0.126627 0.848307 0.328931 -0.126197
C51   C     C_R   0.156195 0.787897 0.634234 -0.155270
C52   C     C_R   0.034515 0.396929 0.230788 -0.166653
C53   C     C_R   0.624914 0.650059 0.172188 -0.130696
C54   C     C_R   0.638981 0.330660 0.843181 -0.122557
C55   C     C_R   0.475932 0.116437 0.325317 -0.147334
C56   C     C_R   0.655294 0.710709 0.865475 -0.156164
C57   C     C_R   0.571714 0.651385 0.118176 -0.123958
C58   C     C_R   0.582704 0.333183 0.893795 -0.099566
C59   C     C_R   0.421834 0.117610 0.272270 -0.130541
C60   C     C_R   0.598912 0.704700 0.915021 -0.130221
C61   C     C_R   0.013054 0.392499 0.675187 -0.156356
C62   C     C_R   0.074081 0.846289 0.383589 -0.120970
C63   C     C_R   0.100003 0.793831 0.584538 -0.130723
C64   C     C_R   0.979422 0.397188 0.282659 -0.138310
C65   C     C_R   0.512565 0.684506 0.125549 -0.135905
C66   C     C_R   0.518042 0.306946 0.880322 -0.122530
C67   C     C_R   0.411309 0.162053 0.230019 -0.146910
C68   C     C_R   0.528423 0.715705 0.893393 -0.110943
C69   C     C_R   0.966599 0.350005 0.672668 -0.131594
C70   C     C_R   0.014641 0.813348 0.376070 -0.131006
C71   C     C_R   0.029288 0.783397 0.606217 -0.113643
C72   C     C_R   0.946274 0.350926 0.303178 -0.144725
C73   C     C_R   0.505573 0.717077 0.187850 0.063371
C74   C     C_R   0.508339 0.277436 0.815196 0.048993
C75   C     C_R   0.455940 0.206381 0.239297 0.067450
C76   C     C_R   0.513387 0.734766 0.821648 0.062387
C77   C     C_R   0.980004 0.304527 0.714743 0.072420
C78   C     C_R   0.006434 0.781922 0.312777 0.066558
C79   C     C_R   0.013823 0.764834 0.678151 0.060832
C80   C     C_R   0.970058 0.302785 0.274451 0.070715
C81   C     C_R   0.036413 0.306718 0.767875 0.072275
C82   C     C_R   0.060971 0.782815 0.258344 0.066463
C83   C     C_R   0.070398 0.762587 0.730081 0.070850
C84   C     C_R   0.027651 0.302146 0.222864 0.085248
C85   C     C_R   0.560435 0.716515 0.241952 0.067996
C86   C     C_R   0.564771 0.276217 0.762938 0.084101
C87   C     C_R   0.511125 0.204974 0.293043 0.077267
C88   C     C_R   0.570061 0.736986 0.769794 0.070928
C89   C     C_R   0.443913 0.748629 0.198343 -0.167202
C90   C     C_R   0.443870 0.249111 0.801934 -0.162162
C91   C     C_R   0.444236 0.252597 0.198711 -0.165423
C92   C     C_R   0.443765 0.752968 0.801945 -0.157251
C93   C     C_R   0.936436 0.258281 0.709064 -0.206458
C94   C     C_R   0.943960 0.751184 0.301694 -0.165447
C95   C     C_R   0.943895 0.747084 0.697967 -0.160143
C96   C     C_R   0.933454 0.255972 0.290924 -0.187169
C97   C     C_R   0.435689 0.778525 0.263304 -0.041081
C98   C     C_R   0.435343 0.218259 0.737352 -0.034528
C99   C     C_R   0.486079 0.298090 0.213530 -0.048083
C100  C     C_R   0.430603 0.775290 0.731267 -0.012808
C101  C     C_R   0.933367 0.224575 0.772952 -0.002837
C102  C     C_R   0.935292 0.721635 0.236444 -0.042086
C103  C     C_R   0.930530 0.724843 0.768679 -0.013300
C104  C     C_R   0.946248 0.211534 0.246263 -0.060023
C105  C     C_R   0.977451 0.237842 0.833467 0.032426
C106  C     C_R   0.994777 0.716585 0.188199 0.020392
C107  C     C_R   0.985240 0.729706 0.823117 0.022808
C108  C     C_R   0.013769 0.207533 0.211661 0.000835
C109  C     C_R   0.495237 0.783539 0.311430 0.020798
C110  C     C_R   0.492542 0.217847 0.685143 0.018688
C111  C     C_R   0.547549 0.293434 0.259140 0.013121
C112  C     C_R   0.485366 0.770419 0.676865 0.023470
C113  C     C_R   0.040281 0.266958 0.821170 -0.195889
C114  C     C_R   0.055375 0.749307 0.197192 -0.127685
C115  C     C_R   0.054454 0.748659 0.803448 -0.123445
C116  C     C_R   0.052104 0.253476 0.194952 -0.148392
C117  C     C_R   0.555453 0.750521 0.302658 -0.127850
C118  C     C_R   0.554937 0.248470 0.696928 -0.113362
C119  C     C_R   0.556056 0.248754 0.302630 -0.128217
C120  C     C_R   0.554392 0.751268 0.696524 -0.123016
C121  C     C_R   0.368879 0.801782 0.284178 0.495826
C122  C     C_R   0.372242 0.187319 0.722975 0.492798
C123  C     C_R   0.469397 0.348586 0.186103 0.496494
C124  C     C_R   0.366927 0.804755 0.713800 0.501514
C125  C     C_R   0.887894 0.179868 0.782661 0.551959
C126  C     C_R   0.868315 0.698474 0.215648 0.493950
C127  C     C_R   0.866768 0.695340 0.786091 0.501777
C128  C     C_R   0.894865 0.171192 0.232046 0.548779
C129  C     C_R   0.367748 0.839420 0.339786 -0.232416
C130  C     C_R   0.372652 0.152578 0.663140 -0.224293
C131  C     C_R   0.522513 0.387657 0.186900 -0.225325
C132  C     C_R   0.356340 0.821249 0.640145 -0.266572
C133  C     C_R   0.870537 0.164130 0.855887 -0.287181
C134  C     C_R   0.866919 0.660934 0.159906 -0.233591
C135  C     C_R   0.856052 0.678787 0.859705 -0.266778
C136  C     C_R   0.918851 0.123134 0.206068 -0.198264
C137  C     C_R   0.902029 0.187804 0.916067 -0.208354
C138  C     C_R   0.928858 0.650690 0.119077 -0.238632
C139  C     C_R   0.906779 0.688578 0.913578 -0.214540
C140  C     C_R   0.991604 0.115599 0.189873 -0.200343
C141  C     C_R   0.429818 0.849699 0.380399 -0.238049
C142  C     C_R   0.429078 0.152464 0.613008 -0.221189
C143  C     C_R   0.587880 0.379760 0.222570 -0.212211
C144  C     C_R   0.407216 0.811586 0.586348 -0.213962
C145  C     C_R   0.957294 0.222937 0.905144 -0.106669
C146  C     C_R   0.991299 0.679863 0.130538 -0.165367
C147  C     C_R   0.971312 0.712436 0.895645 -0.145882
C148  C     C_R   0.038775 0.157701 0.191045 -0.120935
C149  C     C_R   0.492090 0.820442 0.368884 -0.163753
C150  C     C_R   0.487521 0.185466 0.622607 -0.155361
C151  C     C_R   0.599231 0.334039 0.261130 -0.152161
C152  C     C_R   0.471671 0.787786 0.604358 -0.145203
H25   H     H_    0.121733 0.357147 0.812947 0.172108
H26   H     H_    0.162878 0.819448 0.226048 0.165511
H27   H     H_    0.187408 0.771864 0.743838 0.182738
H28   H     H_    0.097075 0.353790 0.156727 0.154596
H29   H     H_    0.662298 0.679971 0.274067 0.164054
H30   H     H_    0.675805 0.301581 0.740717 0.131515
H31   H     H_    0.560727 0.156944 0.378717 0.126664
H32   H     H_    0.686967 0.727349 0.756076 0.182178
H33   H     H_    0.105902 0.426460 0.726705 0.147837
H34   H     H_    0.172619 0.874060 0.334699 0.142356
H35   H     H_    0.211063 0.794057 0.616208 0.139531
H36   H     H_    0.058544 0.433149 0.213007 0.133584
H37   H     H_    0.670683 0.624166 0.166523 0.140710
H38   H     H_    0.689407 0.350735 0.853971 0.140792
H39   H     H_    0.483581 0.082024 0.358530 0.128684
H40   H     H_    0.710009 0.704176 0.883525 0.138584
H41   H     H_    0.575950 0.626340 0.070636 0.157230
H42   H     H_    0.589268 0.355305 0.943933 0.155338
H43   H     H_    0.387233 0.084158 0.264402 0.138092
H44   H     H_    0.610002 0.692295 0.970738 0.131819
H45   H     H_    0.002055 0.426397 0.641884 0.134864
H46   H     H_    0.078997 0.870712 0.431708 0.154948
H47   H     H_    0.111435 0.805730 0.528680 0.130979
H48   H     H_    0.960439 0.433583 0.305123 0.145381
H49   H     H_    0.472033 0.683669 0.082561 0.128279
H50   H     H_    0.476075 0.309969 0.921678 0.136579
H51   H     H_    0.366838 0.161404 0.191345 0.131112
H52   H     H_    0.486557 0.710266 0.934317 0.125397
H53   H     H_    0.917757 0.355703 0.641415 0.152667
H54   H     H_    0.974761 0.813488 0.419713 0.128456
H55   H     H_    0.987595 0.788821 0.565177 0.125170
H56   H     H_    0.899492 0.354065 0.338568 0.149765
H57   H     H_    0.834846 0.132154 0.868372 0.147122
H58   H     H_    0.816824 0.641237 0.146405 0.138532
H59   H     H_    0.809248 0.656808 0.876608 0.119712
H60   H     H_    0.880548 0.091948 0.197143 0.176195
H61   H     H_    0.317746 0.859119 0.353415 0.138896
H62   H     H_    0.329115 0.125148 0.654879 0.146068
H63   H     H_    0.510908 0.425440 0.163811 0.189839
H64   H     H_    0.309491 0.843055 0.623138 0.119833
H65   H     H_    0.983448 0.239238 0.953171 0.150776
H66   H     H_    0.036838 0.673060 0.094279 0.125200
H67   H     H_    0.010616 0.715669 0.939428 0.147473
H68   H     H_    0.094293 0.151092 0.174406 0.157480
H69   H     H_    0.537701 0.827248 0.405035 0.125153
H70   H     H_    0.530038 0.183771 0.581660 0.125411
H71   H     H_    0.649244 0.330587 0.291825 0.127903
H72   H     H_    0.511064 0.784590 0.560623 0.146905
H73   H     H_    0.009163 0.034940 0.926659 0.174669
H74   H     H_    0.999202 0.966036 0.019962 0.176322
H75   H     H_    0.498828 0.534436 0.485835 0.177943
H76   H     H_    0.512829 0.465913 0.579216 0.186920
C153  C     C_R   0.387711 0.046619 0.974232 -0.114183
C154  C     C_R   0.380693 0.952642 0.048444 -0.117090
C155  C     C_R   0.877188 0.549273 0.438621 -0.114715
C156  C     C_R   0.889630 0.454274 0.509174 -0.132909
C157  C     C_R   0.451247 0.022419 0.997310 -0.154459
C158  C     C_R   0.447526 0.976482 0.037023 -0.145757
C159  C     C_R   0.944591 0.525393 0.443755 -0.153094
C160  C     C_R   0.951198 0.478863 0.481529 -0.172531
C161  C     C_R   0.316180 0.974688 0.020213 0.067741
C162  C     C_R   0.318886 0.025261 0.991184 0.069859
C163  C     C_R   0.819481 0.475422 0.498223 0.075448
C164  C     C_R   0.814932 0.526335 0.470538 0.071040
C165  C     C_R   0.249327 0.947807 0.020990 -0.166988
C166  C     C_R   0.253065 0.052391 0.978844 -0.168711
C167  C     C_R   0.754260 0.448278 0.515721 -0.166937
C168  C     C_R   0.748414 0.552990 0.474801 -0.168628
C169  C     C_R   0.183954 0.975932 0.010734 -0.018820
C170  C     C_R   0.187458 0.024523 0.975613 -0.017693
C171  C     C_R   0.688784 0.476104 0.521795 -0.015655
C172  C     C_R   0.683712 0.524618 0.486979 -0.018554
C173  C     C_R   0.114747 0.957795 0.033107 0.227903
C174  C     C_R   0.124700 0.043296 0.939224 0.214662
C175  C     C_R   0.627687 0.457597 0.561250 0.209538
C176  C     C_R   0.613726 0.542748 0.467636 0.227995
C177  C     C_R   0.052151 0.980131 0.003819 -0.218613
C178  C     C_R   0.057518 0.020507 0.953400 -0.208591
C179  C     C_R   0.559913 0.480171 0.549955 -0.190766
C180  C     C_R   0.552375 0.520351 0.499563 -0.210932
H77   H     H_    0.393402 0.081170 0.941049 0.172568
H78   H     H_    0.379880 0.917418 0.080766 0.160053
H79   H     H_    0.873914 0.585387 0.408468 0.155299
H80   H     H_    0.898656 0.419983 0.541794 0.161186
H81   H     H_    0.503366 0.039750 0.985220 0.142339
H82   H     H_    0.496584 0.958676 0.057619 0.143188
H83   H     H_    0.992003 0.543723 0.420133 0.142673
H84   H     H_    0.004092 0.461568 0.489144 0.145309
O53   O     O_3   0.304067 0.783698 0.255785 -0.671920
C181  C     C_3   0.268025 0.752389 0.308914 0.075394
H85   H     H_    0.215415 0.740523 0.284891 0.190958
H86   H     H_    0.255339 0.774743 0.359655 0.127707
C182  C     C_3   0.309273 0.702280 0.328234 -0.353008
H87   H     H_    0.323659 0.681105 0.277180 0.259342
H88   H     H_    0.359950 0.711698 0.358375 0.220918
C183  C     C_3   0.263388 0.666868 0.376844 -0.924190
H89   H     H_    0.248778 0.686989 0.428768 0.266197
H90   H     H_    0.294642 0.631411 0.390602 0.273580
H91   H     H_    0.213091 0.655212 0.347619 0.263808
O54   O     O_3   0.312518 0.189298 0.769613 -0.671158
C184  C     C_3   0.246887 0.198118 0.730742 0.102379
H92   H     H_    0.202296 0.196992 0.771605 0.189529
H93   H     H_    0.234167 0.166510 0.691489 0.141848
C185  C     C_3   0.244838 0.251394 0.692494 -0.376883
H94   H     H_    0.247516 0.282571 0.734432 0.266613
H95   H     H_    0.291825 0.256089 0.654868 0.217950
C186  C     C_3   0.175683 0.257556 0.647348 -0.885984
H96   H     H_    0.176529 0.230682 0.599662 0.264480
H97   H     H_    0.171569 0.297937 0.626590 0.273205
H98   H     H_    0.127343 0.248811 0.681412 0.271288
O55   O     O_3   0.398845 0.362569 0.170217 -0.608844
C187  C     C_3   0.371471 0.395012 0.226961 0.085995
H99   H     H_    0.374309 0.435939 0.208053 0.163651
H100  H     H_    0.402219 0.392076 0.279842 0.130610
C188  C     C_3   0.292721 0.380635 0.243752 -0.281075
H101  H     H_    0.260020 0.382064 0.192866 0.258492
H102  H     H_    0.290506 0.340492 0.265884 0.233232
C189  C     C_3   0.259186 0.417629 0.299597 -1.002270
H103  H     H_    0.289833 0.416416 0.352141 0.276939
H104  H     H_    0.202224 0.405979 0.310524 0.278364
H105  H     H_    0.259391 0.457864 0.277749 0.268246
O56   O     O_3   0.317420 0.817014 0.769280 -0.677074
C190  C     C_3   0.281797 0.864944 0.757305 0.001318
H106  H     H_    0.238338 0.860041 0.715773 0.159090
H107  H     H_    0.320481 0.895667 0.739153 0.151230
C191  C     C_3   0.246346 0.882808 0.828389 -0.307723
H108  H     H_    0.215627 0.850103 0.853247 0.228862
H109  H     H_    0.289651 0.895335 0.866687 0.228503
C192  C     C_3   0.194731 0.928061 0.815028 -0.901485
H110  H     H_    0.225052 0.962322 0.794336 0.268390
H111  H     H_    0.167472 0.938557 0.867214 0.276816
H112  H     H_    0.152290 0.917105 0.774591 0.271895
O57   O     O_3   0.875036 0.147474 0.722633 -0.605909
C193  C     C_3   0.816229 0.112824 0.732613 0.136916
H113  H     H_    0.789933 0.107943 0.679063 0.199249
H114  H     H_    0.772098 0.128757 0.767742 0.106475
C194  C     C_3   0.843346 0.059397 0.757908 -0.372603
H115  H     H_    0.870778 0.039726 0.711319 0.263825
H116  H     H_    0.883935 0.063430 0.802602 0.238557
C195  C     C_3   0.781142 0.025470 0.785327 -0.959080
H117  H     H_    0.756252 0.042940 0.835097 0.261247
H118  H     H_    0.802098 0.986451 0.799813 0.286205
H119  H     H_    0.738996 0.021119 0.742246 0.263805
O58   O     O_3   0.803635 0.716363 0.244516 -0.673063
C196  C     C_3   0.767163 0.747529 0.191641 0.073986
H120  H     H_    0.714588 0.759120 0.215957 0.190923
H121  H     H_    0.754349 0.725164 0.140935 0.128027
C197  C     C_3   0.808080 0.797830 0.172206 -0.348176
H122  H     H_    0.822420 0.819079 0.223221 0.263409
H123  H     H_    0.858772 0.788653 0.141950 0.219718
C198  C     C_3   0.761903 0.833012 0.123711 -0.922175
H124  H     H_    0.747354 0.812822 0.071817 0.263924
H125  H     H_    0.792910 0.868627 0.109886 0.273883
H126  H     H_    0.711570 0.844409 0.153057 0.265675
O59   O     O_3   0.817316 0.683065 0.730588 -0.676153
C199  C     C_3   0.782013 0.634912 0.742234 0.000840
H127  H     H_    0.738499 0.639435 0.783812 0.159201
H128  H     H_    0.820886 0.604324 0.760162 0.150501
C200  C     C_3   0.746720 0.617140 0.671019 -0.308918
H129  H     H_    0.715943 0.649818 0.646335 0.229897
H130  H     H_    0.790099 0.604856 0.632661 0.229298
C201  C     C_3   0.695215 0.571689 0.684063 -0.897288
H131  H     H_    0.725554 0.537512 0.704798 0.267614
H132  H     H_    0.668285 0.561170 0.631721 0.277256
H133  H     H_    0.652532 0.582445 0.724345 0.273873
O60   O     O_3   0.820877 0.179539 0.234177 -0.601354
C202  C     C_3   0.799631 0.206472 0.169982 0.037487
H134  H     H_    0.803365 0.180183 0.121522 0.136963
H135  H     H_    0.833982 0.241436 0.160035 0.125176
C203  C     C_3   0.721241 0.224474 0.179075 -0.261528
H136  H     H_    0.686080 0.190748 0.192739 0.240583
H137  H     H_    0.718451 0.252703 0.225133 0.220322
C204  C     C_3   0.692893 0.250388 0.109297 -0.977998
H138  H     H_    0.726921 0.284528 0.094880 0.263115
H139  H     H_    0.636354 0.263685 0.118459 0.277351
H140  H     H_    0.693194 0.222460 0.062736 0.267154
I1    I     I_    0.099266 0.910209 0.126913 -0.363613
I2    I     I_    0.129146 0.095811 0.848971 -0.377191
I3    I     I_    0.636803 0.407100 0.652870 -0.396561
I4    I     I_    0.594790 0.590880 0.375168 -0.370901
I5    I     I_    0.420514 0.425819 0.009368 -0.333524
I6    I     I_    0.386136 0.573433 0.890690 -0.275592
I7    I     I_    0.407160 0.553456 0.069473 -0.392592
I8    I     I_    0.337667 0.447729 0.849814 -0.288884
I9    I     I_    0.893573 0.943227 0.591874 -0.352842
I10   I     I_    0.865084 0.056118 0.372097 -0.291387
I11   I     I_    0.913614 0.073179 0.546621 -0.271342
I12   I     I_    0.896381 0.927505 0.410127 -0.312298

loop_
_geom_bond_atom_site_label_1
_geom_bond_atom_site_label_2
_geom_bond_distance
_ccdc_geom_bond_type
C170  C174  1.419481 A    
C13   C117  1.453858 S    
C202  H135  1.116443 S    
C83   C115  1.411799 A    
C182  H87   1.109760 S    
O53   C181  1.422797 S    
O26   C7    1.298681 A    
C162  C166  1.420437 A    
C200  H130  1.108187 S    
C25   C37   1.557254 S    
C127  O59   1.397149 S    
C78   C82   1.411249 A    
O30   C11   1.280075 A    
C30   H14   1.113803 S    
C106  C114  1.409992 A    
C134  H58   1.082759 S    
Zn12  O26   1.931485 S    
C122  C130  1.410231 A    
C203  C204  1.526351 S    
C104  C128  1.430949 A    
C54   C58   1.388823 A    
C105  C145  1.408014 A    
C32   H16   1.113626 S    
C42   C82   1.414155 A    
C29   H5    1.111184 S    
C108  C116  1.412376 A    
C35   I9    2.189163 S    
C203  H137  1.111529 S    
C99   C111  1.410553 A    
C56   H40   1.075248 S    
O11   C7    1.281637 A    
C57   H41   1.082489 S    
O34   C15   1.281973 A    
C67   H51   1.081031 S    
C175  C179  1.395485 A    
C68   H52   1.081238 S    
C53   H37   1.082443 S    
C179  C180  1.389929 A    
C183  H89   1.111021 S    
C197  H123  1.110865 S    
Zn1   O44   1.944439 S    
C25   H1    1.110021 S    
C165  C169  1.420815 A    
Zn2   O43   1.944438 S    
H23   C143  1.082555 S    
C157  C158  1.388775 A    
C187  C188  1.529921 S    
Zn5   O48   1.944439 S    
C61   C69   1.391695 A    
Zn6   O47   1.944438 S    
C124  C132  1.418328 A    
Zn7   O46   1.943525 S    
C9    C113  1.484718 S    
O16   C12   1.273624 A    
C191  H109  1.108226 S    
C159  C160  1.387980 A    
Zn16  O4    1.960212 S    
H73   C178  1.082641 S    
C112  C120  1.412794 A    
Zn1   O13   1.941233 S    
C100  C112  1.419469 A    
C184  C185  1.540324 S    
C26   C28   1.540134 S    
H24   C144  1.080882 S    
C143  C151  1.387763 A    
Zn4   O16   1.940041 S    
C125  O57   1.395493 S    
C26   C38   1.556809 S    
C27   C38   1.560597 S    
C28   H4    1.110786 S    
C194  H115  1.110088 S    
C201  H132  1.107570 S    
C34   I6    2.187029 S    
C137  C145  1.377805 A    
C158  H82   1.082496 S    
C182  C183  1.525943 S    
Zn6   O4    1.938823 S    
Zn9   O21   1.930193 S    
C166  C170  1.408631 A    
C147  H67   1.080329 S    
C130  C142  1.383482 A    
C128  O60   1.383004 S    
C148  H68   1.081867 S    
C171  C175  1.418060 A    
C183  H90   1.110432 S    
C195  H118  1.110342 S    
C17   C166  1.482763 S    
C35   C39   1.583507 S    
C30   H6    1.110659 S    
Zn10  O22   1.931485 S    
C84   C116  1.428424 A    
C24   C40   1.491199 S    
O25   C8    1.283329 A    
Zn13  O29   1.931459 S    
C181  C182  1.541406 S    
C132  H64   1.077334 S    
Zn10  O2    1.958252 S    
C11   C115  1.456939 S    
C185  H94   1.109919 S    
C48   C88   1.414721 A    
C67   C75   1.418787 A    
O29   C12   1.286198 A    
C68   C76   1.421096 A    
C47   C87   1.417333 A    
C149  H69   1.082403 S    
C26   H2    1.112265 S    
C177  C178  1.390288 A    
C188  H101  1.105364 S    
C82   C114  1.412737 A    
O37   C17   1.280414 A    
C90   C98   1.427804 A    
O48   C23   1.270975 A    
C193  H113  1.095280 S    
C41   C81   1.418839 A    
C42   H26   1.081843 S    
C135  C139  1.378453 A    
C44   C84   1.421555 A    
C167  C171  1.410576 A    
C73   C85   1.411911 A    
C3    C89   1.457086 S    
C186  H96   1.110742 S    
C74   C90   1.416344 A    
C183  H91   1.111001 S    
C126  O58   1.383596 S    
C103  C127  1.435632 A    
C191  H108  1.111484 S    
C186  H98   1.108545 S    
Zn15  O33   1.931459 S    
C101  C125  1.436266 A    
C44   H28   1.076352 S    
Zn7   O10   1.939999 S    
C189  H104  1.110698 S    
C28   C37   1.556438 S    
O33   C16   1.279553 A    
H17   C137  1.083157 S    
C154  C158  1.392880 A    
O40   C20   1.277232 A    
C189  H103  1.110774 S    
O59   C199  1.417796 S    
C110  C150  1.414543 A    
C86   C118  1.409670 A    
C157  H81   1.082516 S    
C34   C38   1.586289 S    
C88   C120  1.411872 A    
O58   C196  1.422668 S    
Zn5   O17   1.941233 S    
C194  C195  1.525941 S    
C190  C191  1.520391 S    
C69   C77   1.422024 A    
C43   C51   1.392393 A    
Zn15  O51   1.946345 S    
C25   C27   1.531712 S    
C23   C39   1.486985 S    
C111  C119  1.406213 A    
C121  C129  1.402643 A    
C109  C117  1.410093 A    
C204  H139  1.111226 S    
C27   H3    1.110510 S    
C103  C107  1.419629 A    
C32   H8    1.112148 S    
Zn8   O3    1.940649 S    
C43   H27   1.078836 S    
C65   C73   1.416951 A    
O38   C18   1.295534 A    
C181  H85   1.107662 S    
C98   C110  1.419246 A    
C63   C71   1.388917 A    
C134  C138  1.388390 A    
C185  C186  1.526006 S    
O5    C1    1.269752 A    
C59   C67   1.393379 A    
O32   C9    1.289608 A    
C52   C64   1.386369 A    
C55   C59   1.388688 A    
C51   C63   1.384180 A    
C64   H48   1.082925 S    
C124  O56   1.397321 S    
C187  H100  1.119106 S    
Zn11  O28   1.931554 S    
C50   C62   1.388960 A    
O60   C202  1.413532 S    
C97   C121  1.423337 A    
C142  C150  1.384461 A    
C156  C163  1.419449 A    
C2    C92   1.453968 S    
C12   C116  1.462458 S    
C1    C91   1.463909 S    
Zn7   O4    1.940650 S    
C54   H38   1.082512 S    
C182  H88   1.110855 S    
O8    C4    1.277065 A    
C194  H116  1.110210 S    
Zn9   O1    1.960519 S    
C129  C141  1.388492 A    
C62   C70   1.393640 A    
C56   C60   1.384326 A    
C199  H127  1.108888 S    
C46   H30   1.082077 S    
C107  C147  1.414721 A    
O50   C18   1.287571 A    
C169  C173  1.418838 A    
Zn1   O1    1.938824 S    
C50   H34   1.082414 S    
Zn13  O1    1.957945 S    
Zn2   O14   1.941093 S    
C129  H61   1.082722 S    
C29   C39   1.557213 S    
C33   C34   1.601098 S    
C70   H54   1.081945 S    
C49   C61   1.384020 A    
C102  C106  1.411002 A    
C57   C65   1.393535 A    
C46   C54   1.393179 A    
C161  C165  1.414566 A    
C126  C134  1.402728 A    
C188  C189  1.525616 S    
O9    C5    1.281516 A    
C55   H39   1.082649 S    
O36   C13   1.278756 A    
C72   C80   1.417921 A    
C154  C161  1.416297 A    
O13   C9    1.278853 A    
O54   C184  1.420965 S    
Zn1   O8    1.941050 S    
H20   C140  1.082711 S    
Zn2   O7    1.941190 S    
C153  C157  1.393666 A    
Zn3   O6    1.939999 S    
O18   C14   1.274094 A    
O31   C10   1.279080 A    
O6    C2    1.280318 A    
C164  C168  1.409895 A    
C41   H25   1.076200 S    
C31   C40   1.553766 S    
C14   C118  1.455203 S    
C18   C165  1.485335 S    
C75   C87   1.412102 A    
C35   I12   2.184382 S    
C160  H84   1.082634 S    
C36   I11   2.182066 S    
C105  C113  1.398518 A    
C48   H32   1.078938 S    
C130  H62   1.080662 S    
C145  H65   1.082948 S    
Zn14  O30   1.931808 S    
C71   H55   1.081119 S    
C136  H60   1.082730 S    
Zn15  O3    1.957945 S    
C52   H36   1.082908 S    
Zn11  O3    1.960519 S    
O41   C21   1.275645 A    
C176  C180  1.396293 A    
C45   C53   1.393359 A    
Zn16  O34   1.931808 S    
C192  H111  1.107640 S    
C31   H15   1.113493 S    
C198  H126  1.111001 S    
C150  H70   1.082261 S    
C125  C133  1.427539 A    
C128  C136  1.399534 A    
Zn8   O20   1.940041 S    
O56   C190  1.417857 S    
C106  C146  1.415121 A    
C99   C123  1.428502 A    
C89   C97   1.419390 A    
C133  H57   1.078923 S    
C190  H106  1.108953 S    
H76   C179  1.082418 S    
C92   C100  1.428586 A    
C74   C86   1.409691 A    
C184  H93   1.109149 S    
C71   C79   1.420969 A    
C6    C96   1.475822 S    
C59   H43   1.082623 S    
C60   H44   1.081698 S    
C175  I3    2.120517 S    
C171  C172  1.405291 A    
C202  C203  1.528783 S    
C151  H71   1.082451 S    
Zn8   O9    1.941491 S    
C33   I8    2.197395 S    
C34   I7    2.190161 S    
C199  C200  1.520478 S    
C112  C152  1.414789 A    
C94   C102  1.419720 A    
C131  H63   1.082659 S    
C174  C178  1.395252 A    
C163  C164  1.408830 A    
O7    C3    1.271628 A    
C200  C201  1.526818 S    
C107  C115  1.412818 A    
O19   C15   1.270476 A    
C26   H10   1.113545 S    
Zn9   O24   1.931554 S    
C133  C137  1.381621 A    
Zn6   O18   1.941093 S    
C123  C131  1.405253 A    
Zn10  O23   1.931209 S    
C30   C40   1.558226 S    
C10   C114  1.452931 S    
Zn16  O35   1.930443 S    
C42   C50   1.393104 A    
C70   C78   1.416365 A    
H74   C177  1.082467 S    
C47   C55   1.392556 A    
C78   C94   1.413131 A    
C185  H95   1.110602 S    
C190  H107  1.115656 S    
Zn15  O36   1.931738 S    
O15   C11   1.276367 A    
O42   C22   1.271766 A    
C58   H42   1.082693 S    
Zn4   O1    1.940649 S    
C174  I2    2.128345 S    
C123  O55   1.381985 S    
C203  H136  1.112627 S    
C192  H112  1.110908 S    
Zn9   O37   1.945158 S    
C193  H114  1.113966 S    
O12   C8    1.273226 A    
C136  C140  1.388285 A    
Zn11  O39   1.945158 S    
C66   C74   1.419584 A    
C19   C168  1.482418 S    
C20   C167  1.483686 S    
C155  H79   1.082374 S    
C58   C66   1.393099 A    
O51   C19   1.284514 A    
C72   H56   1.079606 S    
C197  H122  1.109788 S    
C45   H29   1.081894 S    
C198  H124  1.111020 S    
C186  H97   1.110452 S    
Zn5   O3    1.938824 S    
C31   H7    1.104142 S    
C41   C49   1.389698 A    
C66   H50   1.082041 S    
C172  C176  1.418456 A    
C32   C39   1.555998 S    
C49   H33   1.082825 S    
C193  C194  1.537103 S    
C132  C144  1.378507 A    
C159  H83   1.082478 S    
C44   C52   1.392769 A    
C76   C88   1.408747 A    
C169  C170  1.407743 A    
C21   C37   1.489883 S    
H22   C142  1.082842 S    
C156  H80   1.077772 S    
C163  C167  1.427351 A    
O28   C5    1.275388 A    
C191  C192  1.527014 S    
C4    C90   1.453750 S    
Zn3   O42   1.943525 S    
C173  C177  1.396965 A    
C161  C162  1.407832 A    
O21   C4    1.277943 A    
C202  H134  1.114557 S    
C196  H121  1.113370 S    
C201  H131  1.110801 S    
C81   C113  1.412245 A    
C127  C135  1.418080 A    
C135  H59   1.077106 S    
C53   C57   1.389281 A    
C156  C160  1.393914 A    
C189  H105  1.111111 S    
C60   C68   1.388671 A    
Zn2   O2    1.938823 S    
H75   C180  1.082453 S    
Zn14  O2    1.960212 S    
C61   H45   1.082671 S    
C200  H129  1.111504 S    
C104  C108  1.399509 A    
C195  H117  1.110742 S    
C48   C56   1.392753 A    
C108  C148  1.417280 A    
C204  H138  1.112164 S    
C102  C126  1.423632 A    
Zn13  O49   1.946345 S    
O44   C21   1.269787 A    
C28   H12   1.113732 S    
C155  C159  1.391866 A    
C36   I10   2.187799 S    
H18   C138  1.082282 S    
C80   C96   1.414862 A    
Zn12  O27   1.931209 S    
C16   C120  1.456482 S    
C181  H86   1.113368 S    
C155  C164  1.415561 A    
C111  C151  1.416363 A    
C87   C119  1.411369 A    
C154  H78   1.081807 S    
C109  C149  1.415266 A    
Zn3   O2    1.940650 S    
C139  C147  1.378686 A    
C85   C117  1.413613 A    
C33   C37   1.586918 S    
C36   C40   1.582984 S    
C152  H72   1.080358 S    
C75   C91   1.418423 A    
O55   C187  1.422083 S    
C76   C92   1.414582 A    
C201  H133  1.110907 S    
O46   C24   1.270531 A    
O47   C24   1.275482 A    
Zn16  O52   1.945201 S    
C146  H66   1.082419 S    
Zn8   O45   1.943526 S    
O27   C6    1.300169 A    
O39   C19   1.296592 A    
C22   C38   1.488021 S    
Zn12  O4    1.958252 S    
C7    C93   1.501592 S    
C110  C118  1.412160 A    
C197  C198  1.525905 S    
C131  C143  1.384982 A    
C29   C31   1.529194 S    
C122  O54   1.391223 S    
O24   C1    1.293159 A    
C33   I5    2.174458 S    
C199  H128  1.115653 S    
C97   C109  1.410857 A    
C79   C83   1.409112 A    
C168  C172  1.416955 A    
H21   C141  1.082310 S    
O43   C22   1.272934 A    
C43   C83   1.414879 A    
Zn4   O41   1.943526 S    
Zn3   O15   1.941534 S    
C196  C197  1.541313 S    
Zn5   O12   1.941050 S    
Zn6   O11   1.941190 S    
H19   C139  1.080710 S    
Zn14  O50   1.945201 S    
C121  O53   1.383579 S    
C188  H102  1.111451 S    
C35   C36   1.603497 S    
C98   C122  1.435226 A    
O35   C14   1.279943 A    
C96   C104  1.425423 A    
O57   C193  1.416636 S    
Zn12  O40   1.946302 S    
C69   H53   1.075848 S    
C141  C149  1.391526 A    
O52   C20   1.302863 A    
C138  C146  1.391414 A    
C29   H13   1.113835 S    
C46   C86   1.416199 A    
C195  H119  1.109702 S    
C153  C162  1.417496 A    
C204  H140  1.112178 S    
C8    C94   1.456726 S    
O22   C3    1.283368 A    
C77   C81   1.421527 A    
C95   C103  1.428501 A    
Zn7   O19   1.941534 S    
C47   H31   1.081495 S    
C93   C101  1.451311 A    
C62   H46   1.082416 S    
C91   C99   1.430051 A    
Zn13  O32   1.931738 S    
O49   C17   1.298967 A    
Zn14  O31   1.930443 S    
C30   C32   1.537694 S    
C79   C95   1.415084 A    
C73   C89   1.412864 A    
C144  C152  1.378693 A    
C77   C93   1.441771 A    
C176  I4    2.118427 S    
C27   H11   1.114040 S    
C192  H110  1.110816 S    
Zn4   O5    1.941491 S    
C198  H125  1.110427 S    
C196  H120  1.107585 S    
O20   C16   1.275696 A    
C101  C105  1.410749 A    
C187  H99   1.111307 S    
O10   C6    1.266237 A    
O23   C2    1.275153 A    
Zn11  O25   1.930193 S    
C153  H77   1.080845 S    
C173  I1    2.119395 S    
C65   H49   1.082247 S    
Zn10  O38   1.946302 S    
C15   C119  1.449930 S    
C5    C95   1.455074 S    
O14   C10   1.274374 A    
C80   C84   1.417228 A    
C45   C85   1.414155 A    
C64   C72   1.391064 A    
C25   H9    1.113869 S    
C140  C148  1.391345 A    
C51   H35   1.075643 S    
C184  H92   1.108669 S    
O17   C13   1.273551 A    
C100  C124  1.435815 A    
C63   H47   1.081208 S    
O45   C23   1.272960 A    
