data_mof_unit_2530.cif
_audit_creation_date              2012-12-11T17:07:31-0500
_audit_creation_method            fapswitch 2.2
_symmetry_space_group_name_H-M    P1
_symmetry_Int_Tables_number       1
_space_group_crystal_system       triclinic
_cell_length_a                    19.031919
_cell_length_b                    19.061349
_cell_length_c                    18.691198
_cell_angle_alpha                 90.184881
_cell_angle_beta                  90.030919
_cell_angle_gamma                 90.524232
_cell_volume                      6780.36138463

loop_
_atom_site_label
_atom_site_type_symbol
_atom_type_description
_atom_site_fract_x
_atom_site_fract_y
_atom_site_fract_z
_atom_type_partial_charge
C1    C     C_R   0.405534 0.312048 0.890016 0.156478
C2    C     C_R   0.682839 0.409918 0.880838 0.168878
C3    C     C_R   0.591466 0.689080 0.890803 0.152097
C4    C     C_R   0.311964 0.592422 0.890469 0.165447
C5    C     C_R   0.407036 0.687466 0.110680 0.165200
C6    C     C_R   0.686076 0.592564 0.113225 0.166570
C7    C     C_R   0.591147 0.315311 0.115656 0.162963
C8    C     C_R   0.317160 0.411938 0.120267 0.176371
C9    C     C_R   0.905602 0.812609 0.389177 0.163860
C10   C     C_R   0.182939 0.910034 0.380699 0.176137
C11   C     C_R   0.093738 0.190335 0.395469 0.162172
C12   C     C_R   0.814276 0.091201 0.385934 0.190293
C13   C     C_R   0.908288 0.186198 0.614301 0.190625
C14   C     C_R   0.189544 0.093608 0.606734 0.176408
C15   C     C_R   0.090896 0.815220 0.615751 0.164665
C16   C     C_R   0.818811 0.914538 0.623219 0.160007
C17   C     C_3   0.876377 0.329707 0.728736 0.459343
C18   C     C_3   0.655246 0.888320 0.726820 0.487644
C19   C     C_3   0.117258 0.660783 0.726137 0.476739
C20   C     C_3   0.343830 0.117885 0.718681 0.474254
C21   C     C_3   0.880038 0.658147 0.277507 0.482978
C22   C     C_3   0.658494 0.119841 0.279359 0.468079
C23   C     C_3   0.119932 0.344409 0.286061 0.485842
C24   C     C_3   0.327201 0.881140 0.263337 0.460690
C25   C     C_3   0.371075 0.837796 0.214559 0.473811
C26   C     C_3   0.161075 0.386608 0.232014 0.477928
C27   C     C_3   0.616818 0.161406 0.226946 0.481664
C28   C     C_3   0.839943 0.616499 0.221954 0.475014
C29   C     C_3   0.383046 0.158207 0.776058 0.486725
C30   C     C_3   0.158567 0.618950 0.778765 0.473561
C31   C     C_3   0.612327 0.845173 0.778217 0.482809
C32   C     C_3   0.830704 0.374733 0.773645 0.460085
C33   C     C_R   0.391519 0.675361 0.875358 -0.103799
C34   C     C_R   0.322192 0.390642 0.877639 -0.166370
C35   C     C_R   0.602088 0.324615 0.872020 -0.168041
C36   C     C_R   0.672316 0.610452 0.872063 -0.153013
C37   C     C_R   0.393937 0.326721 0.129045 -0.160827
C38   C     C_R   0.322517 0.608386 0.121907 -0.166869
C39   C     C_R   0.607047 0.675153 0.126149 -0.154199
C40   C     C_R   0.677701 0.394650 0.124190 -0.161277
C41   C     C_R   0.893427 0.174990 0.373973 -0.140796
C42   C     C_R   0.819679 0.888979 0.381919 -0.168249
C43   C     C_R   0.102577 0.824499 0.372330 -0.171558
C44   C     C_R   0.175973 0.112756 0.378049 -0.156571
C45   C     C_R   0.893675 0.827589 0.629913 -0.158681
C46   C     C_R   0.824526 0.106255 0.626101 -0.171301
C47   C     C_R   0.111159 0.174894 0.624051 -0.148898
C48   C     C_R   0.178407 0.893086 0.622723 -0.173353
C49   C     C_R   0.341755 0.323310 0.856504 -0.063242
C50   C     C_R   0.667214 0.346129 0.845116 -0.058810
C51   C     C_R   0.652246 0.678848 0.855179 -0.070123
C52   C     C_R   0.323166 0.656100 0.856567 -0.076674
C53   C     C_R   0.341755 0.675121 0.143424 -0.059148
C54   C     C_R   0.674099 0.655289 0.147511 -0.074365
C55   C     C_R   0.655511 0.328703 0.150101 -0.057627
C56   C     C_R   0.330489 0.350465 0.157262 -0.068590
C57   C     C_R   0.840429 0.822861 0.358019 -0.066210
C58   C     C_R   0.167367 0.846435 0.345120 -0.055732
C59   C     C_R   0.157237 0.181643 0.362318 -0.061445
C60   C     C_R   0.826463 0.154302 0.351173 -0.069193
C61   C     C_R   0.844307 0.172527 0.648201 -0.065779
C62   C     C_R   0.179790 0.156562 0.641021 -0.079078
C63   C     C_R   0.155690 0.827735 0.649473 -0.054588
C64   C     C_R   0.831146 0.853137 0.659886 -0.068511
C65   C     C_R   0.778720 0.315967 0.775444 -0.097872
C66   C     C_R   0.672459 0.793367 0.778897 -0.109126
C67   C     C_R   0.213186 0.677204 0.776753 -0.108996
C68   C     C_R   0.321368 0.209177 0.779101 -0.122737
C69   C     C_R   0.786703 0.676331 0.222838 -0.132968
C70   C     C_R   0.676781 0.215044 0.225289 -0.112860
C71   C     C_R   0.217496 0.329797 0.235030 -0.123596
C72   C     C_R   0.312355 0.785306 0.215449 -0.101222
C73   C     C_R   0.275115 0.821997 0.265367 -0.103985
C74   C     C_R   0.178913 0.292485 0.284694 -0.099139
C75   C     C_R   0.714755 0.176228 0.274124 -0.115274
C76   C     C_R   0.818828 0.709135 0.280678 -0.115803
C77   C     C_R   0.289426 0.175407 0.721908 -0.121696
C78   C     C_R   0.176012 0.715372 0.726813 -0.114434
C79   C     C_R   0.714015 0.833907 0.733715 -0.122076
C80   C     C_R   0.817286 0.278225 0.727945 -0.096704
C81   C     C_R   0.709087 0.300866 0.794063 0.039483
C82   C     C_R   0.694903 0.727680 0.806346 0.069508
C83   C     C_R   0.279708 0.696823 0.802573 0.054326
C84   C     C_R   0.300522 0.275804 0.804986 0.051469
C85   C     C_R   0.720116 0.697252 0.197884 0.055111
C86   C     C_R   0.697237 0.282411 0.201101 0.057486
C87   C     C_R   0.285276 0.311006 0.211839 0.060586
C88   C     C_R   0.294699 0.718424 0.192034 0.042408
C89   C     C_R   0.209216 0.802750 0.291720 0.043540
C90   C     C_R   0.200657 0.227847 0.312817 0.061041
C91   C     C_R   0.781854 0.196202 0.299052 0.056885
C92   C     C_R   0.798110 0.775542 0.307579 0.046841
C93   C     C_R   0.224537 0.197432 0.693620 0.051071
C94   C     C_R   0.197479 0.782085 0.701442 0.056521
C95   C     C_R   0.783282 0.814921 0.712824 0.073177
C96   C     C_R   0.797185 0.215034 0.697962 0.041774
C97   C     C_R   0.185747 0.736087 0.264902 -0.160298
C98   C     C_R   0.269066 0.208130 0.291805 -0.151550
C99   C     C_R   0.804653 0.263193 0.274160 -0.165916
C100  C     C_R   0.733818 0.799717 0.278794 -0.166224
C101  C     C_R   0.201413 0.262857 0.720332 -0.148236
C102  C     C_R   0.263830 0.804422 0.728715 -0.160177
C103  C     C_R   0.806970 0.751048 0.743470 -0.178005
C104  C     C_R   0.725880 0.196148 0.715187 -0.181074
C105  C     C_R   0.683452 0.237870 0.761079 -0.164233
C106  C     C_R   0.764007 0.709529 0.787874 -0.148692
C107  C     C_R   0.304118 0.762825 0.776445 -0.168025
C108  C     C_R   0.236941 0.300225 0.774578 -0.166439
C109  C     C_R   0.696206 0.761801 0.226599 -0.152562
C110  C     C_R   0.763221 0.305466 0.228617 -0.161185
C111  C     C_R   0.310133 0.247739 0.243457 -0.175480
C112  C     C_R   0.227680 0.694997 0.218031 -0.169697
H1    H     H_    0.415764 0.700230 0.828745 0.127198
H2    H     H_    0.275184 0.407642 0.856644 0.159600
H3    H     H_    0.583942 0.276791 0.853060 0.157625
H4    H     H_    0.711022 0.592386 0.838166 0.161645
H5    H     H_    0.407518 0.277677 0.147355 0.160446
H6    H     H_    0.276236 0.591523 0.143650 0.163230
H7    H     H_    0.588723 0.719683 0.150458 0.159469
H8    H     H_    0.727476 0.412584 0.139454 0.150112
H9    H     H_    0.915398 0.216778 0.344008 0.143382
H10   H     H_    0.768248 0.902452 0.369349 0.159629
H11   H     H_    0.083968 0.776886 0.353478 0.158394
H12   H     H_    0.212059 0.094066 0.340932 0.160892
H13   H     H_    0.905467 0.777412 0.646747 0.159438
H14   H     H_    0.779766 0.089379 0.650032 0.167177
H15   H     H_    0.091449 0.211369 0.660441 0.159716
H16   H     H_    0.229619 0.908695 0.635916 0.154364
H17   H     H_    0.135557 0.713852 0.279501 0.137465
H18   H     H_    0.293955 0.161885 0.312734 0.124289
H19   H     H_    0.854090 0.286435 0.290181 0.130650
H20   H     H_    0.710435 0.848500 0.294106 0.131698
H21   H     H_    0.155719 0.289038 0.699372 0.122715
H22   H     H_    0.286720 0.854524 0.714705 0.135955
H23   H     H_    0.858494 0.731059 0.734259 0.134646
H24   H     H_    0.700413 0.150403 0.692430 0.133429
H25   H     H_    0.629928 0.219861 0.768875 0.144612
H26   H     H_    0.788925 0.662845 0.808058 0.122230
H27   H     H_    0.354108 0.784280 0.793190 0.132706
H28   H     H_    0.212871 0.348536 0.789933 0.131778
H29   H     H_    0.648249 0.786368 0.209891 0.125921
H30   H     H_    0.784542 0.356665 0.216609 0.133929
H31   H     H_    0.361226 0.227122 0.232559 0.136567
H32   H     H_    0.204682 0.644852 0.203442 0.134586
N1    N     N_R   0.425360 0.368540 0.922560 -0.041287
N2    N     N_R   0.631460 0.425360 0.922560 -0.046432
N3    N     N_R   0.574640 0.631460 0.922560 -0.042280
N4    N     N_R   0.368540 0.574640 0.922560 -0.048016
N5    N     N_R   0.425360 0.631460 0.077440 -0.042719
N6    N     N_R   0.631460 0.574640 0.077440 -0.038682
N7    N     N_R   0.574640 0.368540 0.077440 -0.040952
N8    N     N_R   0.368540 0.425360 0.077440 -0.040287
N9    N     N_R   0.925360 0.868540 0.422560 -0.040166
N10   N     N_R   0.131460 0.925360 0.422560 -0.047568
N11   N     N_R   0.074640 0.131460 0.422560 -0.042518
N12   N     N_R   0.868540 0.074640 0.422560 -0.044647
N13   N     N_R   0.925360 0.131460 0.577440 -0.051575
N14   N     N_R   0.131460 0.074640 0.577440 -0.043227
N15   N     N_R   0.074640 0.868540 0.577440 -0.041270
N16   N     N_R   0.868540 0.925360 0.577440 -0.038407
N17   N     N_R   0.425340 0.631500 0.922560 -0.046525
N18   N     N_R   0.368500 0.425340 0.922560 -0.041868
N19   N     N_R   0.574660 0.368500 0.922560 -0.045562
N20   N     N_R   0.631500 0.574660 0.922560 -0.037700
N21   N     N_R   0.425340 0.368500 0.077440 -0.041838
N22   N     N_R   0.368500 0.574660 0.077440 -0.042021
N23   N     N_R   0.574660 0.631500 0.077440 -0.041595
N24   N     N_R   0.631500 0.425340 0.077440 -0.047592
N25   N     N_R   0.925340 0.131500 0.422560 -0.045563
N26   N     N_R   0.868500 0.925340 0.422560 -0.044647
N27   N     N_R   0.074660 0.868500 0.422560 -0.045984
N28   N     N_R   0.131500 0.074660 0.422560 -0.040281
N29   N     N_R   0.925340 0.868500 0.577440 -0.041029
N30   N     N_R   0.868500 0.074660 0.577440 -0.040223
N31   N     N_R   0.074660 0.131500 0.577440 -0.041655
N32   N     N_R   0.131500 0.925340 0.577440 -0.045354
Ni1   Ni    Ni4+2 0.500000 0.369720 0.000000 0.214448
Ni2   Ni    Ni4+2 0.630280 0.500000 0.000000 0.212660
Ni3   Ni    Ni4+2 0.500000 0.630280 0.000000 0.214304
Ni4   Ni    Ni4+2 0.369720 0.500000 0.000000 0.214090
Ni5   Ni    Ni4+2 1.000000 0.869720 0.500000 0.213866
Ni6   Ni    Ni4+2 0.130280 0.000000 0.500000 0.212324
Ni7   Ni    Ni4+2 1.000000 0.130280 0.500000 0.211730
Ni8   Ni    Ni4+2 0.869720 0.000000 0.500000 0.211847
C113  C     C_3   0.455180 0.257827 0.875594 -0.315491
C114  C     C_3   0.502995 0.219326 0.926856 -1.034124
H33   H     H_    0.534225 0.254768 0.960617 0.309139
H34   H     H_    0.475116 0.179558 0.956909 0.273357
H35   H     H_    0.539902 0.186204 0.895335 0.258060
H36   H     H_    0.416055 0.222106 0.871772 0.265024
H37   H     H_    0.482360 0.274215 0.827333 0.225856
C115  C     C_3   0.724476 0.468923 0.855888 -0.275674
C116  C     C_3   0.776043 0.513287 0.902339 -1.019647
H38   H     H_    0.751190 0.547639 0.941002 0.296011
H39   H     H_    0.814715 0.485469 0.933004 0.273489
H40   H     H_    0.808462 0.546807 0.866350 0.253586
H41   H     H_    0.758326 0.441912 0.832330 0.272641
H42   H     H_    0.696099 0.493210 0.810989 0.154610
C117  C     C_3   0.535678 0.734473 0.870239 -0.302652
C118  C     C_3   0.485975 0.775698 0.918905 -0.972309
H43   H     H_    0.458975 0.745058 0.959530 0.299707
H44   H     H_    0.511159 0.819703 0.945782 0.263970
H45   H     H_    0.445939 0.801889 0.883977 0.258983
H46   H     H_    0.565194 0.771596 0.854494 0.264204
H47   H     H_    0.517060 0.712809 0.820574 0.175748
C119  C     C_3   0.264835 0.536003 0.870590 -0.301666
C120  C     C_3   0.218650 0.493198 0.921496 -1.036998
H48   H     H_    0.249263 0.459593 0.956900 0.301148
H49   H     H_    0.182214 0.524064 0.952825 0.275811
H50   H     H_    0.183083 0.459270 0.889056 0.264787
H51   H     H_    0.229365 0.567250 0.853508 0.275837
H52   H     H_    0.287647 0.507692 0.825136 0.186508
C121  C     C_3   0.464243 0.734079 0.130057 -0.300669
C122  C     C_3   0.510072 0.779471 0.079660 -1.021306
H53   H     H_    0.541879 0.749428 0.041755 0.301113
H54   H     H_    0.482073 0.819695 0.050951 0.266055
H55   H     H_    0.545641 0.812501 0.113458 0.256807
H56   H     H_    0.433998 0.770516 0.145116 0.277784
H57   H     H_    0.489186 0.712578 0.178353 0.180886
C123  C     C_3   0.742914 0.544546 0.121257 -0.333316
C124  C     C_3   0.775602 0.501073 0.062509 -1.030339
H58   H     H_    0.736887 0.474472 0.028381 0.309103
H59   H     H_    0.812731 0.532864 0.032525 0.271810
H60   H     H_    0.810644 0.460981 0.086542 0.255652
H61   H     H_    0.778021 0.584695 0.123552 0.253936
H62   H     H_    0.732028 0.513892 0.168715 0.232467
C125  C     C_3   0.536043 0.267129 0.134770 -0.308914
C126  C     C_3   0.492932 0.221521 0.083457 -1.033960
H63   H     H_    0.460388 0.252111 0.047063 0.308048
H64   H     H_    0.523283 0.183621 0.054039 0.278455
H65   H     H_    0.457515 0.186809 0.115018 0.259969
H66   H     H_    0.569013 0.232137 0.149768 0.272071
H67   H     H_    0.507850 0.288468 0.180746 0.193970
C127  C     C_3   0.266927 0.465216 0.136219 -0.301974
C128  C     C_3   0.222153 0.503674 0.080760 -1.026683
H68   H     H_    0.253976 0.533686 0.043159 0.305391
H69   H     H_    0.184179 0.472273 0.051778 0.273371
H70   H     H_    0.186541 0.540440 0.109487 0.255073
H71   H     H_    0.231732 0.431732 0.152085 0.269822
H72   H     H_    0.285253 0.494774 0.183299 0.187827
C129  C     C_3   0.955386 0.758769 0.374342 -0.321877
C130  C     C_3   0.001586 0.721021 0.427262 -1.040303
H73   H     H_    0.032014 0.756869 0.461228 0.310456
H74   H     H_    0.971675 0.683090 0.457633 0.277244
H75   H     H_    0.038906 0.686956 0.397460 0.258487
H76   H     H_    0.916785 0.722961 0.370013 0.263822
H77   H     H_    0.982882 0.774568 0.325935 0.224728
C131  C     C_3   0.223207 0.969357 0.355582 -0.277856
C132  C     C_3   0.275531 0.011391 0.403199 -1.008273
H78   H     H_    0.249976 0.042582 0.444006 0.299955
H79   H     H_    0.315630 0.983123 0.431480 0.272770
H80   H     H_    0.307076 0.047390 0.368893 0.248932
H81   H     H_    0.255361 0.945348 0.326346 0.269544
H82   H     H_    0.190633 0.995850 0.314884 0.149696
C133  C     C_3   0.037972 0.237684 0.378884 -0.323179
C134  C     C_3   0.990631 0.275644 0.432273 -0.994868
H83   H     H_    0.965025 0.240823 0.470542 0.303381
H84   H     H_    0.017785 0.319178 0.459381 0.263805
H85   H     H_    0.948967 0.304197 0.401933 0.257147
H86   H     H_    0.067009 0.275847 0.364129 0.272247
H87   H     H_    0.015478 0.217223 0.330674 0.188594
C135  C     C_3   0.766344 0.034958 0.369090 -0.320435
C136  C     C_3   0.722066 0.998937 0.425657 -1.043141
H88   H     H_    0.755029 0.968071 0.461481 0.304679
H89   H     H_    0.689968 0.034638 0.456222 0.278473
H90   H     H_    0.682716 0.964025 0.399321 0.264803
H91   H     H_    0.731208 0.065201 0.349680 0.276764
H92   H     H_    0.788657 0.001604 0.326731 0.188832
C137  C     C_3   0.968294 0.225320 0.640248 -0.268218
C138  C     C_3   0.013307 0.277031 0.593783 -0.991326
H93   H     H_    0.045992 0.252352 0.553209 0.291920
H94   H     H_    0.985720 0.317168 0.565168 0.267351
H95   H     H_    0.047903 0.308241 0.630291 0.246691
H96   H     H_    0.947200 0.257283 0.671986 0.263490
H97   H     H_    0.993048 0.190612 0.681000 0.136159
C139  C     C_3   0.241640 0.040700 0.619407 -0.319003
C140  C     C_3   0.279206 0.997818 0.563133 -1.030309
H98   H     H_    0.242998 0.967478 0.529095 0.304249
H99   H     H_    0.315855 0.030007 0.533019 0.271139
H100  H     H_    0.315186 0.960610 0.590258 0.259246
H101  H     H_    0.279034 0.075232 0.629984 0.267905
H102  H     H_    0.224156 0.010250 0.665135 0.212895
C141  C     C_3   0.035172 0.767890 0.635521 -0.303996
C142  C     C_3   0.992634 0.721430 0.584589 -1.035900
H103  H     H_    0.959196 0.751453 0.548689 0.304945
H104  H     H_    0.023250 0.684391 0.554152 0.278462
H105  H     H_    0.958131 0.686177 0.616640 0.262820
H106  H     H_    0.067375 0.732912 0.651969 0.274594
H107  H     H_    0.006768 0.790338 0.680933 0.190393
C143  C     C_3   0.765933 0.965890 0.638129 -0.296891
C144  C     C_3   0.720853 0.005944 0.584156 -1.035333
H108  H     H_    0.751733 0.038992 0.548899 0.299417
H109  H     H_    0.684846 0.974383 0.551835 0.279560
H110  H     H_    0.684730 0.040891 0.614548 0.263879
H111  H     H_    0.731428 0.929458 0.648856 0.268645
H112  H     H_    0.779389 0.992347 0.687924 0.188536
O1    O     O_3   0.937509 0.305241 0.769085 -0.676308
C145  C     C_3   0.927217 0.241909 0.810416 0.265820
H113  H     H_    0.917683 0.195417 0.775912 0.086088
H114  H     H_    0.881277 0.244481 0.846275 0.127716
C146  C     C_3   0.990922 0.226321 0.856543 -0.921591
H115  H     H_    0.011893 0.275234 0.881193 0.269626
H116  H     H_    0.975426 0.189580 0.900646 0.211645
H117  H     H_    0.031796 0.200641 0.824056 0.243572
O2    O     O_3   0.672567 0.958409 0.752950 -0.657183
C147  C     C_3   0.726719 0.965757 0.807157 0.221419
H118  H     H_    0.779898 0.950190 0.789176 0.082351
H119  H     H_    0.719443 0.934352 0.854178 0.147409
C148  C     C_3   0.727032 0.041225 0.835180 -0.916132
H120  H     H_    0.673264 0.056209 0.852066 0.262340
H121  H     H_    0.762355 0.046606 0.882476 0.214599
H122  H     H_    0.745656 0.077168 0.792408 0.256008
O3    O     O_3   0.050948 0.685596 0.755750 -0.665696
C149  C     C_3   0.054816 0.747568 0.800313 0.248724
H123  H     H_    0.072208 0.795198 0.771618 0.085457
H124  H     H_    0.092885 0.744232 0.843415 0.139530
C150  C     C_3   0.983764 0.762121 0.834647 -0.930171
H125  H     H_    0.959334 0.712637 0.854594 0.267973
H126  H     H_    0.990319 0.798805 0.881020 0.217146
H127  H     H_    0.948533 0.787367 0.795590 0.241423
O4    O     O_3   0.316721 0.050351 0.743361 -0.666614
C151  C     C_3   0.254305 0.051233 0.787044 0.271512
H128  H     H_    0.207025 0.068794 0.758011 0.083996
H129  H     H_    0.256475 0.088232 0.831399 0.136270
C152  C     C_3   0.239129 0.978088 0.816557 -0.943233
H130  H     H_    0.288666 0.953108 0.834927 0.272187
H131  H     H_    0.202530 0.981474 0.863025 0.218343
H132  H     H_    0.214079 0.944867 0.775114 0.243351
O5    O     O_3   0.942848 0.691549 0.247983 -0.663833
C153  C     C_3   0.932376 0.754723 0.206280 0.289844
H133  H     H_    0.915843 0.799953 0.239458 0.089607
H134  H     H_    0.889596 0.751010 0.166902 0.126955
C154  C     C_3   0.000189 0.777912 0.169649 -0.970310
H135  H     H_    0.027941 0.732148 0.146682 0.275311
H136  H     H_    0.987866 0.815295 0.125473 0.220179
H137  H     H_    0.034942 0.805551 0.208252 0.245613
O6    O     O_3   0.678571 0.051215 0.250817 -0.665481
C155  C     C_3   0.740457 0.049639 0.206392 0.250133
H138  H     H_    0.789189 0.066292 0.234072 0.081971
H139  H     H_    0.738418 0.085197 0.161180 0.138410
C156  C     C_3   0.750942 0.976239 0.175509 -0.921919
H140  H     H_    0.700199 0.954179 0.155754 0.266987
H141  H     H_    0.788296 0.978604 0.129337 0.213556
H142  H     H_    0.773351 0.941012 0.216481 0.243896
O7    O     O_3   0.053508 0.317483 0.257227 -0.666485
C157  C     C_3   0.056630 0.255693 0.212190 0.246989
H143  H     H_    0.073646 0.207731 0.239931 0.079165
H144  H     H_    0.094896 0.258454 0.169837 0.139761
C158  C     C_3   0.985349 0.241655 0.177249 -0.921863
H145  H     H_    0.965698 0.290296 0.150661 0.261091
H146  H     H_    0.990078 0.200024 0.135276 0.214531
H147  H     H_    0.946661 0.223687 0.217181 0.245513
O8    O     O_3   0.300582 0.943487 0.226306 -0.671724
C159  C     C_3   0.236622 0.932690 0.185599 0.263622
H148  H     H_    0.190831 0.921127 0.220465 0.088375
H149  H     H_    0.239634 0.887872 0.148093 0.132311
C160  C     C_3   0.217687 0.997159 0.142274 -0.925259
H150  H     H_    0.265270 0.020768 0.117803 0.271511
H151  H     H_    0.180602 0.981587 0.098286 0.212982
H152  H     H_    0.190839 0.035734 0.176738 0.242176
O9    O     O_3   0.434614 0.812061 0.249860 -0.673572
C161  C     C_3   0.426695 0.750131 0.293950 0.267498
H153  H     H_    0.415163 0.702059 0.262555 0.087348
H154  H     H_    0.382461 0.752463 0.331111 0.128622
C162  C     C_3   0.492685 0.736134 0.337485 -0.931508
H155  H     H_    0.515112 0.786004 0.358858 0.269896
H156  H     H_    0.479418 0.701358 0.383854 0.215471
H157  H     H_    0.532090 0.708913 0.304260 0.241591
O10   O     O_3   0.184273 0.454623 0.259201 -0.662992
C163  C     C_3   0.244809 0.455484 0.305926 0.231180
H158  H     H_    0.293330 0.436388 0.280138 0.091647
H159  H     H_    0.238975 0.421684 0.352742 0.141570
C164  C     C_3   0.258475 0.529324 0.334714 -0.928723
H160  H     H_    0.209069 0.552037 0.356288 0.266221
H161  H     H_    0.297368 0.527401 0.379496 0.215297
H162  H     H_    0.280009 0.563178 0.292257 0.248471
O11   O     O_3   0.551607 0.188116 0.256964 -0.665736
C165  C     C_3   0.557170 0.250896 0.300249 0.252779
H163  H     H_    0.572763 0.298100 0.269973 0.084592
H164  H     H_    0.597765 0.249135 0.341076 0.136778
C166  C     C_3   0.487611 0.265637 0.337635 -0.930729
H165  H     H_    0.465027 0.216625 0.360777 0.266807
H166  H     H_    0.495793 0.304199 0.382179 0.216378
H167  H     H_    0.449910 0.288564 0.299327 0.243432
O12   O     O_3   0.810751 0.551396 0.249998 -0.668848
C167  C     C_3   0.747776 0.556061 0.292637 0.275044
H168  H     H_    0.701175 0.571322 0.261016 0.091434
H169  H     H_    0.749984 0.596205 0.334609 0.133133
C168  C     C_3   0.730516 0.484959 0.325740 -0.951874
H170  H     H_    0.778883 0.460762 0.348058 0.272141
H171  H     H_    0.691596 0.491293 0.369929 0.219310
H172  H     H_    0.707411 0.449443 0.284830 0.245646
O13   O     O_3   0.446559 0.191418 0.748570 -0.666295
C169  C     C_3   0.436855 0.254349 0.706283 0.268226
H173  H     H_    0.419675 0.299823 0.738757 0.092662
H174  H     H_    0.394977 0.250333 0.666229 0.136313
C170  C     C_3   0.505145 0.277019 0.670481 -0.966567
H175  H     H_    0.531983 0.231211 0.646483 0.273747
H176  H     H_    0.493694 0.315620 0.627167 0.221056
H177  H     H_    0.540133 0.303120 0.709899 0.245398
O14   O     O_3   0.182587 0.552134 0.749397 -0.666320
C171  C     C_3   0.244539 0.554492 0.704943 0.250661
H178  H     H_    0.292589 0.571865 0.733455 0.083247
H179  H     H_    0.241337 0.591655 0.661130 0.138248
C172  C     C_3   0.258162 0.482765 0.671467 -0.927652
H180  H     H_    0.208479 0.459230 0.650780 0.266766
H181  H     H_    0.295455 0.488221 0.625540 0.215053
H182  H     H_    0.282021 0.447138 0.711198 0.243363
O15   O     O_3   0.546289 0.819751 0.748034 -0.661066
C173  C     C_3   0.547866 0.759202 0.701144 0.227138
H183  H     H_    0.570129 0.711577 0.725560 0.080759
H184  H     H_    0.579456 0.765590 0.654023 0.148498
C174  C     C_3   0.474066 0.744983 0.672177 -0.926833
H185  H     H_    0.453082 0.792926 0.646409 0.263203
H186  H     H_    0.475137 0.702095 0.631445 0.215218
H187  H     H_    0.438502 0.728952 0.715578 0.246985
O16   O     O_3   0.805881 0.436127 0.733456 -0.672776
C175  C     C_3   0.743408 0.424953 0.690365 0.268494
H188  H     H_    0.695844 0.416110 0.723123 0.088647
H189  H     H_    0.746325 0.378467 0.655421 0.129900
C176  C     C_3   0.728028 0.488068 0.643604 -0.930243
H190  H     H_    0.777334 0.510107 0.621064 0.271961
H191  H     H_    0.693080 0.471575 0.598218 0.214157
H192  H     H_    0.700195 0.528302 0.675015 0.242469
C177  C     C_3   0.892626 0.366558 0.653206 -0.256875
C178  C     C_3   0.852563 0.338580 0.584492 -0.927057
H193  H     H_    0.882966 0.306847 0.545867 0.263520
H194  H     H_    0.806910 0.304500 0.595385 0.249905
H195  H     H_    0.832941 0.383377 0.552191 0.246281
H196  H     H_    0.885047 0.423782 0.651694 0.213132
H197  H     H_    0.949455 0.373417 0.649235 0.172893
C179  C     C_3   0.617607 0.892619 0.649097 -0.292093
C180  C     C_3   0.648955 0.846283 0.586643 -1.016644
H198  H     H_    0.692036 0.868816 0.554741 0.276421
H199  H     H_    0.673057 0.796917 0.606205 0.257065
H200  H     H_    0.606767 0.832797 0.547632 0.262632
H201  H     H_    0.560282 0.884142 0.649803 0.209863
H202  H     H_    0.613793 0.947746 0.633694 0.202927
C181  C     C_3   0.107337 0.619413 0.651308 -0.291144
C182  C     C_3   0.152350 0.645476 0.585583 -0.993117
H203  H     H_    0.127706 0.683304 0.549252 0.271865
H204  H     H_    0.201022 0.673609 0.600619 0.256360
H205  H     H_    0.166685 0.599898 0.551446 0.259079
H206  H     H_    0.114513 0.562005 0.654509 0.215322
H207  H     H_    0.050998 0.616070 0.638517 0.194943
C183  C     C_3   0.391924 0.108994 0.647717 -0.299967
C184  C     C_3   0.373540 0.154560 0.580859 -0.991503
H208  H     H_    0.371555 0.123310 0.530398 0.256560
H209  H     H_    0.322478 0.182239 0.585555 0.266875
H210  H     H_    0.415802 0.193529 0.569199 0.264301
H211  H     H_    0.449028 0.113865 0.657354 0.221023
H212  H     H_    0.390279 0.053067 0.631288 0.200179
C185  C     C_3   0.895960 0.608491 0.345563 -0.303632
C186  C     C_3   0.849964 0.619827 0.414290 -0.984421
H213  H     H_    0.880843 0.626100 0.464066 0.257241
H214  H     H_    0.815199 0.666562 0.411045 0.259638
H215  H     H_    0.817225 0.572747 0.425933 0.265174
H216  H     H_    0.895679 0.551719 0.333369 0.219418
H217  H     H_    0.951964 0.613775 0.359577 0.198601
C187  C     C_3   0.619818 0.113940 0.356156 -0.284780
C188  C     C_3   0.647024 0.162416 0.419059 -0.972402
H218  H     H_    0.676971 0.137428 0.462142 0.262971
H219  H     H_    0.681788 0.205891 0.401747 0.258202
H220  H     H_    0.601087 0.185889 0.447330 0.252809
H221  H     H_    0.562216 0.120560 0.353109 0.212205
H222  H     H_    0.617037 0.058743 0.372659 0.195064
C189  C     C_3   0.111146 0.385495 0.361676 -0.336174
C190  C     C_3   0.152934 0.355755 0.427936 -0.984813
H223  H     H_    0.128253 0.310497 0.456110 0.272200
H224  H     H_    0.206146 0.335367 0.414141 0.257070
H225  H     H_    0.158741 0.396959 0.469941 0.260515
H226  H     H_    0.121217 0.442154 0.359990 0.219779
H227  H     H_    0.054593 0.387806 0.374357 0.201985
C191  C     C_3   0.367066 0.895706 0.337659 -0.268315
C192  C     C_3   0.340777 0.853881 0.405819 -0.935577
H228  H     H_    0.303548 0.880273 0.442340 0.265482
H229  H     H_    0.311054 0.805352 0.393895 0.247345
H230  H     H_    0.386434 0.839967 0.440351 0.248703
H231  H     H_    0.424322 0.887634 0.336653 0.213795
H232  H     H_    0.373260 0.952542 0.344218 0.179953
C193  C     C_3   0.383885 0.877225 0.139053 -0.297753
C194  C     C_3   0.344617 0.846672 0.071506 -0.962099
H233  H     H_    0.376766 0.813936 0.035405 0.268222
H234  H     H_    0.298977 0.812643 0.084016 0.257534
H235  H     H_    0.325230 0.890120 0.037291 0.256264
H236  H     H_    0.374321 0.934078 0.138267 0.224341
H237  H     H_    0.440872 0.882936 0.131053 0.183559
C195  C     C_3   0.119395 0.392131 0.156683 -0.296504
C196  C     C_3   0.145599 0.344753 0.092624 -0.985516
H238  H     H_    0.181372 0.368685 0.052970 0.268685
H239  H     H_    0.177232 0.299339 0.109841 0.254870
H240  H     H_    0.099736 0.325255 0.061153 0.259338
H241  H     H_    0.062046 0.384710 0.160821 0.214896
H242  H     H_    0.117074 0.447655 0.141229 0.197580
C197  C     C_3   0.604952 0.118361 0.153135 -0.285823
C198  C     C_3   0.650619 0.141280 0.086654 -0.998201
H243  H     H_    0.627528 0.179565 0.049730 0.271626
H244  H     H_    0.700309 0.167919 0.101067 0.256217
H245  H     H_    0.662948 0.094407 0.053392 0.260060
H246  H     H_    0.609579 0.060685 0.157491 0.216728
H247  H     H_    0.548441 0.116697 0.140756 0.193479
C199  C     C_3   0.891962 0.601449 0.154916 -0.281465
C200  C     C_3   0.884261 0.648023 0.086255 -0.969294
H248  H     H_    0.887834 0.616364 0.035150 0.248859
H249  H     H_    0.832920 0.676979 0.084877 0.254552
H250  H     H_    0.929176 0.685492 0.080499 0.270375
H251  H     H_    0.948532 0.599782 0.169513 0.213224
H252  H     H_    0.885000 0.545637 0.138933 0.198765
C201  C     C_3   0.396738 0.108174 0.844526 -0.300723
C202  C     C_3   0.349490 0.120274 0.912665 -1.002592
H253  H     H_    0.377791 0.137277 0.960991 0.263437
H254  H     H_    0.308611 0.161050 0.904975 0.258273
H255  H     H_    0.323259 0.070555 0.929243 0.265374
H256  H     H_    0.395582 0.051425 0.832237 0.219869
H257  H     H_    0.452514 0.112193 0.859700 0.200116
C203  C     C_3   0.117545 0.610095 0.853955 -0.295420
C204  C     C_3   0.144212 0.655207 0.919555 -0.985353
H258  H     H_    0.178704 0.628948 0.958083 0.270420
H259  H     H_    0.175246 0.702075 0.904572 0.258047
H260  H     H_    0.098302 0.673084 0.951644 0.257328
H261  H     H_    0.060081 0.617353 0.850565 0.215782
H262  H     H_    0.114241 0.554095 0.867401 0.196113
C205  C     C_3   0.599073 0.885574 0.852970 -0.307028
C206  C     C_3   0.641567 0.859139 0.920185 -1.008763
H263  H     H_    0.620123 0.812539 0.948537 0.275345
H264  H     H_    0.695556 0.841991 0.907775 0.257962
H265  H     H_    0.644013 0.900795 0.961853 0.262746
H266  H     H_    0.603514 0.943026 0.850618 0.208222
H267  H     H_    0.542289 0.885150 0.862995 0.202142
C207  C     C_3   0.868544 0.392196 0.848740 -0.261537
C208  C     C_3   0.839454 0.353374 0.917217 -0.941273
H268  H     H_    0.803322 0.383058 0.952221 0.266408
H269  H     H_    0.808399 0.305600 0.905631 0.250705
H270  H     H_    0.883752 0.338295 0.952802 0.249594
H271  H     H_    0.925780 0.384421 0.850921 0.215819
H272  H     H_    0.875357 0.449147 0.852400 0.174996

loop_
_geom_bond_atom_site_label_1
_geom_bond_atom_site_label_2
_ccdc_geom_bond_type
C151  H129  S    
C160  H150  S    
C132  H80   S    
C177  C178  S    
C144  H108  S    
C7    C55   A    
C8    C56   A    
N8    N21   A    
C121  H57   S    
C113  H36   S    
C199  H252  S    
C154  H135  S    
N32   Ni6   S    
C66   C79   A    
C21   C76   S    
C14   N14   A    
C142  H103  S    
C86   C110  A    
C2    C115  S    
N3    N20   A    
C170  H176  S    
C168  H171  S    
C146  H117  S    
C151  C152  S    
C4    N4    A    
C134  H85   S    
N5    Ni3   S    
C5    N5    A    
C30   O14   S    
C207  C208  S    
C42   N26   A    
C43   C58   A    
C37   C56   A    
C201  H256  S    
C28   C69   S    
C120  H50   S    
C130  H74   S    
C46   N30   A    
C35   H3    S    
C115  H42   S    
C22   C187  S    
C16   C143  S    
C156  H141  S    
C26   O10   S    
C117  C118  S    
C174  H186  S    
C26   C71   S    
C10   N10   A    
C6    C54   A    
C126  H63   S    
O6    C155  S    
C17   O1    S    
C200  H249  S    
C125  H67   S    
C130  H75   S    
C32   C207  S    
C153  H133  S    
C191  H231  S    
C164  H162  S    
N30   Ni8   S    
C204  H259  S    
C97   C112  A    
C119  C120  S    
C203  C204  S    
C48   C63   A    
C149  H123  S    
C146  H115  S    
C99   C110  A    
C41   N25   A    
C198  H245  S    
C35   N19   A    
N8    Ni4   S    
C150  H127  S    
C33   N17   A    
C184  H209  S    
C45   N29   A    
C66   C82   A    
C29   C68   S    
C205  H266  S    
C125  C126  S    
C206  H265  S    
C180  H200  S    
C5    C121  S    
C144  H110  S    
C147  H118  S    
C12   C135  S    
N15   Ni5   S    
C179  C180  S    
C21   C28   S    
C117  H46   S    
C160  H152  S    
C194  H234  S    
C22   C27   S    
C96   C104  A    
C20   C183  S    
C166  H165  S    
C17   C177  S    
C183  H212  S    
C162  H157  S    
C167  C168  S    
C145  H113  S    
N31   Ni7   S    
C28   O12   S    
C154  H137  S    
C68   C77   A    
C136  H89   S    
C205  H267  S    
N26   Ni8   S    
C141  H106  S    
C129  H77   S    
N27   Ni5   S    
C142  H105  S    
C72   C73   A    
C100  H20   S    
C101  H21   S    
C194  H235  S    
O13   C169  S    
C197  H247  S    
C74   C90   A    
C55   C86   S    
C172  H180  S    
C191  C192  S    
C204  H258  S    
C38   C53   A    
C7    C125  S    
C78   C94   A    
C195  C196  S    
C58   C89   S    
C169  H173  S    
C22   O6    S    
C14   C139  S    
C20   O4    S    
C37   H5    S    
C94   C102  A    
C197  C198  S    
C118  H44   S    
O4    C151  S    
C62   C93   S    
C19   C181  S    
C17   C32   S    
C127  H71   S    
C18   C31   S    
C26   C195  S    
C114  H33   S    
C162  H155  S    
C19   C30   S    
C126  H65   S    
C50   C81   S    
C32   C65   S    
C67   C83   A    
C176  H190  S    
C57   C92   S    
C16   N16   A    
N21   Ni1   S    
N16   N29   A    
C1    N1    A    
C117  H47   S    
C9    C129  S    
C47   C62   A    
C163  H158  S    
C113  C114  S    
C61   C96   S    
C188  H218  S    
C33   C52   A    
C179  H202  S    
C63   C94   S    
C132  H78   S    
C193  H237  S    
C139  H102  S    
C137  H96   S    
C143  H112  S    
C49   C84   S    
C144  H109  S    
N11   Ni7   S    
N7    Ni1   S    
C39   C54   A    
C161  H153  S    
C44   C59   A    
C14   C62   A    
N2    Ni2   S    
C69   C76   A    
C129  C130  S    
C152  H131  S    
C202  H254  S    
C2    C50   A    
C133  H87   S    
C134  H84   S    
N9    N26   A    
C166  H167  S    
C177  H196  S    
C186  H213  S    
N17   Ni3   S    
C29   O13   S    
N18   Ni4   S    
C30   C67   S    
C75   C91   A    
N13   N30   A    
C9    N9    A    
C140  H98   S    
C195  H242  S    
C23   C189  S    
C12   N12   A    
C13   N13   A    
C123  C124  S    
C208  H269  S    
C95   C103  A    
C175  H189  S    
C120  H48   S    
C148  H121  S    
C81   C105  A    
C123  H62   S    
C207  H271  S    
C9    C57   A    
C172  H182  S    
C135  H91   S    
C43   N27   A    
C131  H81   S    
C37   N21   A    
C17   C80   S    
C19   O3    S    
C24   C191  S    
C19   C78   S    
C124  H58   S    
C13   C137  S    
C175  C176  S    
C157  H144  S    
C116  H40   S    
C186  H215  S    
C198  H244  S    
C193  C194  S    
C27   O11   S    
C25   O9    S    
C102  C107  A    
C127  H72   S    
C196  H239  S    
C173  H183  S    
C30   C203  S    
C206  H264  S    
C116  H38   S    
C176  H192  S    
C155  H139  S    
N15   N32   A    
C128  H70   S    
C6    C123  S    
N22   Ni4   S    
C23   C74   S    
C187  H222  S    
C36   H4    S    
C43   H11   S    
N20   Ni2   S    
C157  C158  S    
C166  H166  S    
C171  H178  S    
C188  H220  S    
C133  H86   S    
C34   C49   A    
C104  H24   S    
C41   C60   A    
N16   Ni8   S    
C8    N8    A    
C200  H248  S    
C47   H15   S    
C135  C136  S    
C158  H147  S    
C155  C156  S    
C45   C64   A    
C33   H1    S    
C121  H56   S    
C142  H104  S    
C165  H163  S    
C170  H175  S    
C149  C150  S    
C39   H7    S    
C31   O15   S    
N10   N27   A    
C151  H128  S    
C82   C106  A    
C107  H27   S    
C105  H25   S    
N14   N31   A    
C100  C109  A    
C190  H223  S    
N4    Ni4   S    
C159  H148  S    
C140  H100  S    
C70   C75   A    
C120  H49   S    
C109  H29   S    
C91   C99   A    
C203  H261  S    
C47   N31   A    
C48   N32   A    
C8    C127  S    
N23   Ni3   S    
C174  H185  S    
C31   C66   S    
C32   O16   S    
C126  H64   S    
O8    C159  S    
N12   Ni8   S    
C69   C85   A    
C136  H88   S    
C121  C122  S    
C3    N3    A    
C42   H10   S    
C158  H145  S    
C153  H134  S    
C20   C77   S    
C175  H188  S    
C124  H60   S    
C85   C109  A    
C164  H161  S    
C201  C202  S    
C24   C73   S    
C60   C91   S    
C87   C111  A    
C178  H193  S    
C149  H124  S    
C182  H203  S    
C143  C144  S    
O5    C153  S    
C23   C26   S    
C150  H126  S    
C104  C105  A    
C15   C141  S    
N11   N28   A    
C18   C79   S    
C180  H199  S    
C153  C154  S    
N19   Ni1   S    
C147  H119  S    
C128  H68   S    
N3    Ni3   S    
C101  C108  A    
C146  H116  S    
C189  H226  S    
N29   Ni5   S    
C160  H151  S    
C137  C138  S    
C138  H95   S    
C145  H114  S    
C11   C59   A    
C181  H207  S    
C42   C57   A    
C25   C193  S    
C113  H37   S    
C199  H251  S    
C154  H136  S    
C147  C148  S    
C46   C61   A    
C129  H76   S    
C68   C84   A    
C1    C113  S    
C170  H177  S    
C3    C51   A    
C34   N18   A    
C148  H120  S    
C44   H12   S    
C184  H208  S    
C18   O2    S    
C156  H142  S    
C145  C146  S    
C18   C179  S    
C52   C83   S    
C181  C182  S    
O14   C171  S    
C79   C95   A    
C48   H16   S    
C201  H257  S    
C65   C81   A    
C190  H225  S    
C205  C206  S    
C98   H18   S    
C130  H73   S    
C115  H41   S    
C191  H232  S    
C169  H174  S    
C7    N7    A    
C40   H8    S    
N9    Ni5   S    
C174  H187  S    
C34   H2    S    
C127  C128  S    
C93   C101  A    
C36   C51   A    
C131  C132  S    
O12   C167  S    
N2    N19   A    
C200  H250  S    
C38   N22   A    
C199  C200  S    
C10   C58   A    
C169  C170  S    
C204  H260  S    
C163  H159  S    
C23   O7    S    
C29   C201  S    
C193  H236  S    
C182  H205  S    
C114  H35   S    
C162  H156  S    
C167  H168  S    
C184  H210  S    
C73   C89   A    
C181  H206  S    
C192  H230  S    
O3    C149  S    
C161  H154  S    
N6    N23   A    
C77   C93   A    
C84   C108  A    
C122  H54   S    
C119  H52   S    
C152  H130  S    
C163  C164  S    
C88   C112  A    
N28   Ni6   S    
C187  C188  S    
C194  H233  S    
N1    N18   A    
C36   N20   A    
C138  H93   S    
C38   H6    S    
C186  H214  S    
N13   Ni7   S    
C161  C162  S    
C136  H90   S    
C183  C184  S    
O1    C145  S    
C167  H169  S    
C44   N28   A    
O16   C175  S    
C28   C199  S    
C156  H140  S    
C141  H107  S    
C15   N15   A    
C4    C52   A    
C207  H272  S    
N4    N17   A    
C5    C53   A    
C172  H181  S    
C135  H92   S    
C131  H82   S    
C106  H26   S    
C192  H229  S    
C139  H101  S    
N7    N24   A    
N12   N25   A    
C208  H268  S    
C41   H9    S    
C110  H30   S    
C103  H23   S    
N25   Ni7   S    
C71   C74   A    
C119  H51   S    
O15   C173  S    
C45   H13   S    
C118  H43   S    
C116  H39   S    
C1    C49   A    
C187  H221  S    
C3    C117  S    
C185  H217  S    
C80   C96   A    
C196  H238  S    
C173  H184  S    
N6    Ni2   S    
C40   C55   A    
C125  H66   S    
C176  H191  S    
C65   C80   A    
C114  H34   S    
C128  H69   S    
C185  C186  S    
C67   C78   A    
C22   C75   S    
C72   C88   A    
C182  H204  S    
C171  H179  S    
C20   C29   S    
C188  H219  S    
C179  H201  S    
C189  H227  S    
C111  H31   S    
C132  H79   S    
C137  H97   S    
C143  H111  S    
C208  H270  S    
C24   C25   S    
C173  C174  S    
C21   C185  S    
C192  H228  S    
C108  H28   S    
C122  H53   S    
C56   C87   S    
C202  H255  S    
C165  C166  S    
O2    C147  S    
C89   C97   A    
C59   C90   S    
C152  H132  S    
C102  H22   S    
C202  H253  S    
C168  H172  S    
C171  C172  S    
C189  C190  S    
C134  H83   S    
C35   C50   A    
C177  H197  S    
C27   C197  S    
C185  H216  S    
C25   C72   S    
C139  C140  S    
C6    N6    A    
N14   Ni6   S    
C51   C82   S    
O11   C165  S    
C197  H246  S    
C27   C70   S    
C183  H211  S    
C76   C92   A    
C190  H224  S    
C53   C88   S    
C180  H198  S    
C159  H149  S    
C140  H99   S    
C195  H241  S    
C71   C87   A    
C10   C131  S    
C203  H262  S    
C133  C134  S    
C70   C86   A    
C21   O5    S    
C141  C142  S    
C92   C100  A    
O10   C163  S    
C148  H122  S    
C98   C111  A    
C46   H14   S    
N5    N22   A    
C64   C95   S    
C122  H55   S    
C54   C85   S    
C4    C119  S    
C11   N11   A    
C2    N2    A    
C159  C160  S    
O9    C161  S    
C99   H19   S    
C115  C116  S    
C112  H32   S    
C97   H17   S    
C124  H59   S    
C164  H160  S    
C157  H143  S    
C168  H170  S    
C178  H194  S    
C118  H45   S    
N24   Ni2   S    
N10   Ni6   S    
C198  H243  S    
C83   C107  A    
C123  H61   S    
C103  C106  A    
C138  H94   S    
C11   C133  S    
C39   N23   A    
C150  H125  S    
C196  H240  S    
C40   N24   A    
C31   C205  S    
C24   O8    S    
C12   C60   A    
C13   C61   A    
C206  H263  S    
C158  H146  S    
C155  H138  S    
N1    Ni1   S    
C15   C63   A    
C16   C64   A    
O7    C157  S    
C165  H164  S    
C90   C98   A    
C178  H195  S    
