data_mof_unit_81.cif
_audit_creation_date              2013-03-05T15:50:30-0500
_audit_creation_method            fapswitch 2.2
_symmetry_space_group_name_H-M    P1
_symmetry_Int_Tables_number       1
_space_group_crystal_system       triclinic
_cell_length_a                    15.139443
_cell_length_b                    15.088725
_cell_length_c                    34.668336
_cell_angle_alpha                 91.18846
_cell_angle_beta                  91.518128
_cell_angle_gamma                 60.42896
_cell_volume                      6885.2191279

loop_
_atom_site_label
_atom_site_type_symbol
_atom_site_description
_atom_site_fract_x
_atom_site_fract_y
_atom_site_fract_z
_atom_type_partial_charge
O1    O     O_R   0.324990 0.503440 0.453910 -0.459792
O2    O     O_R   0.522030 0.339050 0.458320 -0.457441
C1    C     C_R   0.611980 0.301375 0.444148 0.558973
O3    O     O_R   0.676180 0.324490 0.458320 -0.453319
O4    O     O_R   0.643570 0.521510 0.464260 -0.463689
C2    C     C_R   0.592887 0.610544 0.449468 0.587390
O5    O     O_R   0.504630 0.675350 0.460920 -0.466272
O6    O     O_R   0.339850 0.642450 0.459830 -0.478223
C3    C     C_R   0.305037 0.590691 0.441899 0.581513
O7    O     O_R   0.321120 0.501280 0.538470 -0.451000
O8    O     O_R   0.518440 0.337050 0.536710 -0.457086
C4    C     C_R   0.606368 0.297109 0.552997 0.589680
O9    O     O_R   0.672300 0.322330 0.542880 -0.464669
O10   O     O_R   0.639980 0.519500 0.542640 -0.459386
C5    C     C_R   0.589438 0.608263 0.558372 0.600359
O11   O     O_R   0.500750 0.673190 0.545480 -0.470149
O12   O     O_R   0.336260 0.640450 0.538210 -0.472361
C6    C     C_R   0.295901 0.590362 0.551362 0.583597
Cr1   Cr    Cr6+3 0.426010 0.422500 0.497000 1.190368
Cr2   Cr    Cr6+3 0.651300 0.426310 0.501970 1.167920
Cr3   Cr    Cr6+3 0.422670 0.651170 0.501050 1.108673
O13   O     O_3   0.499990 0.499990 0.500010 -0.323876
C7    C     C_R   0.735207 0.702290 0.100390 -0.066406
C8    C     C_R   0.640660 0.746372 0.119227 0.208367
C9    C     C_R   0.637372 0.723927 0.158144 0.073928
C10   C     C_R   0.728218 0.659495 0.178360 -0.073290
C11   C     C_R   0.820217 0.607150 0.158729 0.062887
C12   C     C_R   0.822906 0.624849 0.119508 0.192404
C13   C     C_R   0.729958 0.564873 0.237368 0.138498
C14   C     C_R   0.732838 0.557392 0.277575 0.104145
C15   C     C_R   0.730772 0.636177 0.301033 -0.061351
C16   C     C_R   0.730254 0.720653 0.284185 0.258767
C17   C     C_R   0.731011 0.726482 0.243950 0.105256
C18   C     C_R   0.728321 0.650157 0.220510 -0.047009
C19   C     C_R   0.595340 0.697794 0.349015 0.095634
C20   C     C_R   0.560866 0.692179 0.385246 0.102041
C21   C     C_R   0.736882 0.587549 0.408108 0.229525
C22   C     C_R   0.771095 0.591190 0.371079 0.111213
C23   C     C_R   0.699786 0.643486 0.341344 -0.012159
C24   C     C_R   0.631132 0.633674 0.414571 -0.002960
C25   C     C_R   0.116409 0.724048 0.081666 -0.056994
C26   C     C_R   0.163101 0.630421 0.101607 0.142091
C27   C     C_R   0.177462 0.629633 0.141924 0.179885
C28   C     C_R   0.151840 0.722304 0.161524 -0.078065
C29   C     C_R   0.120599 0.812582 0.140535 0.051201
C30   C     C_R   0.111494 0.810957 0.100004 0.205074
C31   C     C_R   0.239286 0.720629 0.223976 0.117911
C32   C     C_R   0.243937 0.717580 0.264295 0.258813
C33   C     C_R   0.167957 0.712378 0.285123 -0.037847
C34   C     C_R   0.082104 0.718420 0.265499 0.255811
C35   C     C_R   0.074798 0.727164 0.225003 0.124022
C36   C     C_R   0.154482 0.725663 0.204186 -0.017528
C37   C     C_R   0.225140 0.584208 0.337428 0.090393
C38   C     C_R   0.258209 0.554185 0.375504 0.096786
C39   C     C_R   0.209685 0.729764 0.393096 0.045984
C40   C     C_R   0.177988 0.759805 0.354496 0.241478
C41   C     C_R   0.186664 0.686478 0.326651 0.049491
C42   C     C_R   0.253330 0.626123 0.403537 0.040988
C43   C     C_R   0.713460 0.111204 0.084768 -0.030173
C44   C     C_R   0.775879 0.146121 0.102776 0.117304
C45   C     C_R   0.761278 0.176432 0.141967 0.110742
C46   C     C_R   0.679801 0.178942 0.161852 0.002348
C47   C     C_R   0.607602 0.161440 0.142007 0.240727
C48   C     C_R   0.622648 0.130573 0.103280 0.051481
C49   C     C_R   0.615020 0.281647 0.222737 0.273691
C50   C     C_R   0.602376 0.283987 0.262883 0.068115
C51   C     C_R   0.655621 0.193462 0.284564 -0.078069
C52   C     C_R   0.722410 0.100042 0.266313 0.231689
C53   C     C_R   0.728654 0.096517 0.225928 0.079679
C54   C     C_R   0.676447 0.186971 0.204298 -0.050019
C55   C     C_R   0.728685 0.216556 0.346117 0.092248
C56   C     C_R   0.722110 0.236320 0.385681 0.206277
C57   C     C_R   0.571567 0.215888 0.388258 0.196240
C58   C     C_R   0.577757 0.197336 0.348054 0.091559
C59   C     C_R   0.653867 0.202050 0.326966 -0.017852
C60   C     C_R   0.638053 0.245335 0.406517 -0.062934
C61   C     C_R   0.687010 0.693328 0.918780 -0.042405
C62   C     C_R   0.739661 0.589157 0.907558 0.239532
C63   C     C_R   0.730710 0.560805 0.869014 0.122815
C64   C     C_R   0.672078 0.636518 0.841561 -0.031331
C65   C     C_R   0.612420 0.738398 0.853706 0.100055
C66   C     C_R   0.615768 0.765733 0.892304 0.210770
C67   C     C_R   0.602526 0.609830 0.778417 0.072114
C68   C     C_R   0.595893 0.620014 0.737936 0.243119
C69   C     C_R   0.669939 0.632924 0.718263 -0.057668
C70   C     C_R   0.750587 0.634106 0.739259 0.201094
C71   C     C_R   0.756248 0.623427 0.779585 0.198828
C72   C     C_R   0.680892 0.614868 0.799373 -0.081002
C73   C     C_R   0.736533 0.555457 0.653126 0.237791
C74   C     C_R   0.719391 0.552768 0.612966 0.051713
C75   C     C_R   0.569965 0.720699 0.616704 0.112270
C76   C     C_R   0.588612 0.725317 0.656524 0.112248
C77   C     C_R   0.665918 0.638636 0.675383 0.057349
C78   C     C_R   0.628146 0.629121 0.595778 0.051356
C79   C     C_R   0.073234 0.695571 0.902850 0.015355
C80   C     C_R   0.126409 0.745910 0.891861 0.124908
C81   C     C_R   0.161705 0.735398 0.853948 0.155689
C82   C     C_R   0.145156 0.673124 0.827219 0.040426
C83   C     C_R   0.103088 0.613755 0.839481 0.114698
C84   C     C_R   0.066549 0.625327 0.876928 0.234754
C85   C     C_R   0.239929 0.599855 0.766209 0.196847
C86   C     C_R   0.239479 0.595559 0.725584 0.179711
C87   C     C_R   0.155386 0.670049 0.704392 -0.101139
C88   C     C_R   0.071667 0.747610 0.723532 0.173628
C89   C     C_R   0.073247 0.753272 0.763963 0.164693
C90   C     C_R   0.157094 0.679586 0.785357 -0.103619
C91   C     C_R   0.189924 0.734766 0.644432 0.133988
C92   C     C_R   0.222229 0.716566 0.606141 0.114508
C93   C     C_R   0.185459 0.576413 0.601598 0.112154
C94   C     C_R   0.150926 0.596140 0.639710 0.123772
C95   C     C_R   0.160125 0.670453 0.661941 0.079390
C96   C     C_R   0.230274 0.630478 0.585840 0.054933
C97   C     C_R   0.680655 0.070373 0.903450 -0.052916
C98   C     C_R   0.574755 0.129887 0.896034 0.237927
C99   C     C_R   0.538880 0.162337 0.857924 0.077661
C100  C     C_R   0.608764 0.140710 0.828089 -0.079473
C101  C     C_R   0.713599 0.087386 0.836232 0.085533
C102  C     C_R   0.749031 0.049825 0.873028 0.226438
C103  C     C_R   0.574837 0.253107 0.771948 0.115012
C104  C     C_R   0.580202 0.261933 0.731785 0.305902
C105  C     C_R   0.589201 0.181898 0.706803 0.041178
C106  C     C_R   0.591337 0.094890 0.722505 0.150767
C107  C     C_R   0.579517 0.089576 0.762226 0.146026
C108  C     C_R   0.576485 0.166373 0.787267 -0.040545
C109  C     C_R   0.534589 0.192352 0.636867 0.175695
C110  C     C_R   0.545829 0.210807 0.598172 0.169006
C111  C     C_R   0.702921 0.210950 0.614393 0.060579
C112  C     C_R   0.696405 0.186070 0.653092 0.202714
C113  C     C_R   0.607866 0.184449 0.664864 -0.040252
C114  C     C_R   0.622259 0.233843 0.588021 -0.008149
O14   O     O_R   0.834210 0.019400 0.034570 -0.451504
O15   O     O_R   0.002210 0.824620 0.031030 -0.462172
C115  C     C_R   0.048978 0.737681 0.047482 0.549229
O16   O     O_R   0.024400 0.669340 0.039790 -0.458988
O17   O     O_R   0.830490 0.694950 0.045870 -0.454586
C116  C     C_R   0.745808 0.743836 0.063245 0.559388
O18   O     O_R   0.675430 0.831160 0.051290 -0.473017
O19   O     O_R   0.698870 0.998880 0.039560 -0.528153
C117  C     C_R   0.748928 0.043263 0.050019 0.546320
O20   O     O_R   0.811290 0.006780 0.950620 -0.468284
O21   O     O_R   0.980960 0.812920 0.953200 -0.448431
C118  C     C_R   0.018239 0.722015 0.939822 0.593619
O22   O     O_R   0.001480 0.656720 0.955830 -0.462110
O23   O     O_R   0.809240 0.683250 0.968050 -0.435746
C119  C     C_R   0.716601 0.730658 0.954613 0.592565
O24   O     O_R   0.652500 0.818540 0.967340 -0.443899
O25   O     O_R   0.677620 0.987170 0.961730 -0.444889
C120  C     C_R   0.722994 0.022603 0.941477 0.584482
Cr4   Cr    Cr6+3 0.905130 0.911420 0.992650 1.171748
Cr5   Cr    Cr6+3 0.911860 0.682710 0.002320 1.214937
Cr6   Cr    Cr6+3 0.682710 0.906840 0.004710 1.161118
O26   O     O_3   0.833240 0.833660 0.999890 -0.326933
N1    N     N_R   0.547549 0.811557 0.098794 0.124652
O27   O     O_R   0.480454 0.897564 0.114001 -0.224544
O28   O     O_R   0.526571 0.781704 0.066048 -0.254593
N2    N     N_3   0.453427 0.741238 0.391470 -0.556158
H1    H     H_    0.421780 0.819014 0.385932 0.297112
H2    H     H_    0.421370 0.710679 0.372053 0.284034
N3    N     N_3   0.912276 0.535358 0.178242 -0.514435
H3    H     H_    0.903674 0.475135 0.188041 0.248946
H4    H     H_    0.925208 0.571365 0.202037 0.267703
N4    N     N_R   0.809131 0.538511 0.439148 0.121317
O29   O     O_R   0.892548 0.453082 0.433361 -0.207609
O30   O     O_R   0.793746 0.581631 0.473071 -0.302161
N5    N     N_R   0.198017 0.534919 0.081535 -0.064770
O31   O     O_R   0.234341 0.520550 0.046911 -0.000518
O32   O     O_R   0.234228 0.520603 0.047007 -0.000518
N6    N     N_R   0.101362 0.894680 0.077261 0.134410
O33   O     O_R   0.146477 0.876036 0.044224 -0.265293
O34   O     O_R   0.061378 0.986647 0.091401 -0.243815
N7    N     N_R   0.138987 0.864140 0.343463 0.093074
O35   O     O_R   0.190383 0.910576 0.351467 -0.284538
O36   O     O_R   0.055483 0.910889 0.323022 -0.253314
N8    N     N_R   0.327653 0.718483 0.283970 0.112893
O37   O     O_R   0.392038 0.640574 0.304226 -0.371988
O38   O     O_R   0.344071 0.794152 0.278701 -0.271014
N9    N     N_3   0.325759 0.709590 0.203647 -0.524070
H5    H     H_    0.350819 0.647104 0.184860 0.293186
H6    H     H_    0.304916 0.774409 0.187296 0.246856
N10   N     N_R   0.213753 0.535676 0.162882 0.108375
O39   O     O_R   0.271487 0.516899 0.193488 -0.279869
O40   O     O_R   0.188029 0.468451 0.151848 -0.189425
N11   N     N_R   0.004344 0.712001 0.286355 0.127090
O41   O     O_R   0.963772 0.659386 0.272369 -0.335951
O42   O     O_R   0.977030 0.754455 0.320221 -0.224311
N12   N     N_R   0.915119 0.562142 0.099286 0.127501
O43   O     O_R   0.999697 0.557250 0.110968 -0.265877
O44   O     O_R   0.916713 0.500684 0.072068 -0.242342
N13   N     N_3   0.986112 0.737010 0.205175 -0.557114
H7    H     H_    0.007790 0.674784 0.186487 0.261356
H8    H     H_    0.954229 0.803298 0.188706 0.226665
N14   N     N_3   0.237807 0.507491 0.309396 -0.609765
H9    H     H_    0.166788 0.525087 0.297738 0.281882
H10   H     H_    0.283609 0.507190 0.287292 0.275659
N15   N     N_3   0.301486 0.448582 0.385096 -0.525033
H11   H     H_    0.361499 0.405468 0.366487 0.259194
H12   H     H_    0.245634 0.427542 0.380562 0.298347
N16   N     N_3   0.091243 0.907596 0.160209 -0.533858
H13   H     H_    0.032407 0.922524 0.178936 0.225750
H14   H     H_    0.152372 0.902684 0.176446 0.261693
N17   N     N_3   0.195604 0.804476 0.422179 -0.564261
H15   H     H_    0.119806 0.862690 0.421297 0.285883
H16   H     H_    0.242403 0.835093 0.416370 0.288003
N18   N     N_3   0.854680 0.148364 0.081161 -0.488520
H17   H     H_    0.894296 0.176665 0.097533 0.307388
H18   H     H_    0.819168 0.200121 0.058706 0.256680
N19   N     N_3   0.542913 0.121603 0.083364 -0.493295
H19   H     H_    0.562151 0.044986 0.081352 0.292763
H20   H     H_    0.530528 0.153934 0.055978 0.276163
N20   N     N_3   0.507972 0.171659 0.328995 -0.505082
H21   H     H_    0.466738 0.226425 0.308044 0.242252
H22   H     H_    0.549514 0.101221 0.315130 0.305809
N21   N     N_3   0.539304 0.380027 0.281776 -0.514133
H23   H     H_    0.582720 0.393802 0.302425 0.240116
H24   H     H_    0.480716 0.376525 0.295706 0.240450
N22   N     N_R   0.564340 0.374695 0.200814 0.139199
O45   O     O_R   0.607675 0.388551 0.171398 -0.333566
O46   O     O_R   0.475298 0.447713 0.210750 -0.213380
N23   N     N_3   0.878092 0.543336 0.364224 -0.507683
H25   H     H_    0.896724 0.487803 0.342710 0.246777
H26   H     H_    0.894807 0.598142 0.354219 0.293881
N24   N     N_3   0.834762 0.195518 0.162005 -0.588588
H27   H     H_    0.799240 0.252828 0.183043 0.262893
H28   H     H_    0.887423 0.127963 0.176019 0.243486
N25   N     N_R   0.787975 0.009969 0.288413 0.138916
O47   O     O_R   0.878418 0.946143 0.276236 -0.230547
O48   O     O_R   0.761543 0.994223 0.321869 -0.226505
N26   N     N_3   0.786510 0.999482 0.206993 -0.550275
H29   H     H_    0.738463 0.987009 0.188233 0.239216
H30   H     H_    0.843279 0.000643 0.190914 0.214502
N27   N     N_3   0.813665 0.210118 0.325956 -0.532946
H31   H     H_    0.790870 0.244679 0.298734 0.232054
H32   H     H_    0.867592 0.132283 0.322304 0.301976
N28   N     N_R   0.801942 0.247704 0.404224 0.138137
O49   O     O_R   0.861836 0.181188 0.429523 -0.246057
O50   O     O_R   0.820597 0.318777 0.393281 -0.274359
N29   N     N_R   0.524004 0.164435 0.162088 0.111633
O51   O     O_R   0.463858 0.243768 0.182653 -0.232565
O52   O     O_R   0.506938 0.087960 0.159361 -0.267229
N30   N     N_R   0.501817 0.200152 0.410734 0.126800
O53   O     O_R   0.412858 0.221509 0.396879 -0.259269
O54   O     O_R   0.531425 0.154294 0.443811 -0.241983
N31   N     N_R   0.801681 0.512212 0.935191 0.123511
O55   O     O_R   0.888684 0.435491 0.925405 -0.181765
O56   O     O_R   0.770021 0.517150 0.970128 -0.289420
N32   N     N_R   0.548030 0.869053 0.903828 0.130709
O57   O     O_R   0.474943 0.888322 0.927336 -0.236253
O58   O     O_R   0.548326 0.944024 0.886110 -0.295095
N33   N     N_3   0.527062 0.818028 0.677494 -0.604820
H33   H     H_    0.575186 0.838411 0.692563 0.270791
H34   H     H_    0.484398 0.805160 0.697524 0.259574
N34   N     N_3   0.730349 0.472075 0.294094 -0.581620
H35   H     H_    0.795256 0.431674 0.311440 0.256409
H36   H     H_    0.666318 0.498628 0.311256 0.249917
N35   N     N_R   0.511973 0.620270 0.717185 0.134717
O59   O     O_R   0.524488 0.577533 0.683314 -0.254645
O60   O     O_R   0.421119 0.667816 0.731318 -0.314173
N36   N     N_3   0.529664 0.593017 0.797892 -0.478168
H37   H     H_    0.490431 0.652124 0.817636 0.232158
H38   H     H_    0.568578 0.524956 0.813158 0.264952
N37   N     N_3   0.780114 0.454920 0.858363 -0.503434
H39   H     H_    0.724700 0.437299 0.848561 0.222706
H40   H     H_    0.829159 0.441862 0.835682 0.303202
N38   N     N_R   0.825298 0.648856 0.719906 0.124383
O61   O     O_R   0.797477 0.719561 0.694090 -0.292367
O62   O     O_R   0.921284 0.593718 0.728800 -0.267595
N39   N     N_R   0.836654 0.626152 0.801003 0.115260
O63   O     O_R   0.827571 0.713028 0.812112 -0.245498
O64   O     O_R   0.910449 0.541860 0.814736 -0.244901
N40   N     N_R   0.822571 0.471339 0.671372 0.089907
O65   O     O_R   0.914124 0.443216 0.660208 -0.273622
O66   O     O_R   0.809863 0.422780 0.699337 -0.228632
N41   N     N_3   0.794126 0.473130 0.589414 -0.545186
H41   H     H_    0.857452 0.483454 0.588698 0.282658
H42   H     H_    0.816432 0.402711 0.601906 0.267504
N42   N     N_3   0.550173 0.817030 0.826701 -0.548594
H43   H     H_    0.596140 0.818558 0.805056 0.256043
H44   H     H_    0.496072 0.801120 0.814143 0.235759
N43   N     N_3   0.493024 0.809520 0.597403 -0.545692
H45   H     H_    0.425152 0.836748 0.612173 0.264962
H46   H     H_    0.514386 0.865653 0.599274 0.286356
N44   N     N_3   0.143067 0.809077 0.919217 -0.540709
H47   H     H_    0.221304 0.781154 0.922065 0.268313
H48   H     H_    0.109778 0.882857 0.908210 0.311167
N45   N     N_3   0.724459 0.486650 0.214627 -0.526511
H49   H     H_    0.794530 0.419868 0.217225 0.239829
H50   H     H_    0.711675 0.504446 0.185371 0.262941
N46   N     N_R   0.013931 0.572286 0.886963 0.145488
O67   O     O_R   0.060580 0.473187 0.886012 -0.200523
O68   O     O_R   0.916064 0.622897 0.891139 -0.276583
N47   N     N_3   0.111807 0.536015 0.656024 -0.560016
H51   H     H_    0.040686 0.585254 0.667602 0.310481
H52   H     H_    0.160682 0.491947 0.678313 0.289699
N48   N     N_R   0.324776 0.516467 0.705644 0.133143
O69   O     O_R   0.349204 0.421782 0.710313 -0.241461
O70   O     O_R   0.364028 0.539382 0.677249 -0.248150
N49   N     N_R   0.322687 0.521948 0.788100 0.117554
O71   O     O_R   0.341397 0.428213 0.785379 -0.336302
O72   O     O_R   0.365668 0.546815 0.815964 -0.352318
N50   N     N_3   0.212662 0.789740 0.843047 -0.580515
H53   H     H_    0.173540 0.837294 0.819899 0.287682
H54   H     H_    0.285374 0.737064 0.833830 0.270261
N51   N     N_R   0.985768 0.822497 0.702002 0.107594
O73   O     O_R   0.945667 0.795680 0.673655 -0.284106
O74   O     O_R   0.950333 0.918608 0.709658 -0.231946
N52   N     N_R   0.985623 0.829415 0.783481 0.124994
O75   O     O_R   0.898300 0.833654 0.777861 -0.210512
O76   O     O_R   0.989741 0.903568 0.801697 -0.250519
N53   N     N_3   0.195412 0.814472 0.665864 -0.601244
H55   H     H_    0.242055 0.783519 0.690266 0.280790
H56   H     H_    0.122635 0.867808 0.674709 0.284448
N54   N     N_3   0.251786 0.783082 0.588642 -0.556303
H57   H     H_    0.190368 0.857427 0.589481 0.265001
H58   H     H_    0.311716 0.780755 0.605037 0.268830
N55   N     N_3   0.089883 0.546262 0.813222 -0.469650
H59   H     H_    0.048048 0.587004 0.789029 0.288298
H60   H     H_    0.160964 0.489079 0.804404 0.277706
N56   N     N_3   0.540963 0.765206 0.176578 -0.519051
H61   H     H_    0.534026 0.704758 0.187368 0.269144
H62   H     H_    0.538881 0.811482 0.199763 0.255743
N57   N     N_3   0.178382 0.498628 0.579466 -0.524909
H63   H     H_    0.101812 0.518384 0.577087 0.270668
H64   H     H_    0.216768 0.430323 0.594696 0.314597
N58   N     N_R   0.503927 0.158244 0.926963 0.129558
O77   O     O_R   0.420286 0.154474 0.922275 -0.179749
O78   O     O_R   0.520247 0.193386 0.959362 -0.320279
N59   N     N_R   0.855650 0.982472 0.878187 0.135734
O79   O     O_R   0.917167 0.019414 0.881010 -0.262786
O80   O     O_R   0.891935 0.885374 0.872149 -0.288052
N60   N     N_R   0.776147 0.168370 0.680935 0.100077
O81   O     O_R   0.820620 0.223311 0.681059 -0.239154
O82   O     O_R   0.796484 0.105509 0.709189 -0.289070
N61   N     N_R   0.587222 0.347002 0.716959 0.158036
O83   O     O_R   0.550908 0.383022 0.682914 -0.241380
O84   O     O_R   0.639714 0.381721 0.735615 -0.229106
N62   N     N_3   0.575104 0.329685 0.797275 -0.515388
H65   H     H_    0.517586 0.351744 0.817306 0.283553
H66   H     H_    0.644136 0.298212 0.812604 0.223225
N63   N     N_3   0.431669 0.217165 0.849944 -0.499531
H67   H     H_    0.414612 0.177347 0.828738 0.267112
H68   H     H_    0.412632 0.288512 0.839094 0.273645
N64   N     N_3   0.617029 0.005452 0.699390 -0.555409
H69   H     H_    0.683116 0.985612 0.684183 0.286114
H70   H     H_    0.557921 0.019971 0.679919 0.273157
N65   N     N_3   0.582075 0.999370 0.776695 -0.543209
H71   H     H_    0.569928 0.004381 0.806320 0.264339
H72   H     H_    0.520565 0.995394 0.764078 0.252007
N66   N     N_R   0.446699 0.185409 0.647491 0.088209
O85   O     O_R   0.420466 0.127266 0.627860 -0.264930
O86   O     O_R   0.392481 0.236712 0.676810 -0.257801
N67   N     N_R   0.718776 0.805486 0.307569 0.142303
O87   O     O_R   0.767619 0.790873 0.340346 -0.240912
O88   O     O_R   0.652600 0.897944 0.297575 -0.285178
N68   N     N_R   0.478218 0.207632 0.569063 0.125624
O89   O     O_R   0.513781 0.137298 0.542291 -0.250997
O90   O     O_R   0.381353 0.272620 0.569878 -0.253435
N69   N     N_3   0.786557 0.066851 0.806810 -0.448518
H73   H     H_    0.773806 0.028875 0.783702 0.310633
H74   H     H_    0.777971 0.135656 0.796975 0.258016
N70   N     N_3   0.791767 0.211102 0.601257 -0.548686
H75   H     H_    0.855709 0.141773 0.608504 0.277414
H76   H     H_    0.796870 0.270445 0.614994 0.282940
N71   N     N_3   0.734393 0.811057 0.227237 -0.499070
H77   H     H_    0.796157 0.783007 0.208877 0.259821
H78   H     H_    0.668202 0.853592 0.210827 0.242398
N72   N     N_3   0.522013 0.755184 0.319506 -0.530490
H79   H     H_    0.533268 0.814860 0.311134 0.278987
H80   H     H_    0.532693 0.707590 0.295693 0.283249

loop_
_geom_bond_atom_site_label_1
_geom_bond_atom_site_label_2
_geom_bond_distance
_ccdc_geom_bond_type
N35   O60   1.301486 A    
N69   H73   1.043695 S    
N17   H16   1.044248 S    
N47   H51   1.045652 S    
C39   C40   1.415261 A    
C98   C99   1.416563 A    
C107  N65   1.442547 S    
N51   O74   1.298089 A    
N61   O83   1.299239 A    
C28   C29   1.412709 A    
N7    O36   1.300413 A    
N44   H47   1.045551 S    
C19   N72   1.434082 S    
C4    C114  1.499819 S    
C101  N69   1.437085 S    
N4    O29   1.301020 A    
O4    C2    1.283289 A    
C109  N66   1.443014 S    
C40   C41   1.411474 A    
C46   C54   1.474179 S    
C25   C26   1.415030 A    
C94   C95   1.408287 A    
N58   O77   1.301117 A    
N3    H4    1.044917 S    
C38   N15   1.434862 S    
C67   C72   1.407917 A    
C43   C44   1.416614 A    
Cr3   O13   1.984525 S    
N18   H17   1.043509 S    
N28   O50   1.302003 A    
C70   N38   1.440101 S    
C88   C89   1.402797 A    
N10   O40   1.301075 A    
C119  O24   1.274009 A    
N4    O30   1.301486 A    
N21   H24   1.045373 S    
C27   N10   1.446502 S    
N33   H34   1.044132 S    
N60   O81   1.300452 A    
C35   C36   1.412487 A    
C16   N67   1.439005 S    
N64   H69   1.046123 S    
N62   H65   1.042917 S    
C61   C62   1.418364 A    
O12   Cr3   1.924579 S    
C27   C28   1.416546 A    
C85   N49   1.435470 S    
C21   C22   1.409082 A    
N51   O73   1.300923 A    
C17   N71   1.436519 S    
N52   O75   1.301226 A    
N53   H55   1.044835 S    
C8    C9    1.405901 A    
C31   C36   1.408579 A    
C30   N6    1.443846 S    
N6    O33   1.302248 A    
C40   N7    1.438355 S    
C2    C24   1.474712 S    
C93   C96   1.417281 A    
N50   H53   1.043512 S    
O9    Cr2   2.037208 S    
O2    Cr1   1.929639 S    
C8    N1    1.436612 S    
O23   C119  1.297973 A    
C47   N29   1.441335 S    
C2    O5    1.273411 A    
O19   Cr6   1.923107 S    
C62   N31   1.438681 S    
C82   C90   1.478383 S    
C50   N21   1.438325 S    
N2    H2    1.044980 S    
N45   H50   1.043004 S    
C75   C78   1.415098 A    
N48   O69   1.299610 A    
C61   C66   1.423190 A    
O7    C6    1.276645 A    
N66   O85   1.302080 A    
N43   H46   1.045533 S    
C53   C54   1.412841 A    
C37   N14   1.437112 S    
N15   H11   1.046514 S    
O3    Cr2   2.038329 S    
C109  C113  1.415696 A    
C79   C118  1.484187 S    
C64   C72   1.487004 S    
N57   H63   1.046125 S    
C110  C114  1.416750 A    
N16   H14   1.041759 S    
N12   O43   1.299813 A    
N46   O68   1.299777 A    
N34   H35   1.044747 S    
C94   N47   1.436321 S    
O11   Cr3   2.037213 S    
O25   C120  1.286222 A    
C112  C113  1.423270 A    
C5    C78   1.499669 S    
C25   C115  1.492552 S    
C81   C82   1.410074 A    
C107  C108  1.416478 A    
O4    Cr2   1.920960 S    
C69   C70   1.412367 A    
N33   H33   1.045313 S    
C7    C116  1.490232 S    
C97   C120  1.485591 S    
N47   H52   1.045056 S    
N22   O46   1.301028 A    
C21   C24   1.417943 A    
C22   C23   1.408817 A    
C11   N3    1.436611 S    
C49   C54   1.413009 A    
C39   N17   1.435231 S    
C33   C41   1.482601 S    
N54   H57   1.046121 S    
C67   N36   1.435189 S    
N13   H8    1.044967 S    
N8    O37   1.300846 A    
N56   H62   1.044485 S    
C69   C77   1.488741 S    
C44   N18   1.440212 S    
C15   C16   1.409513 A    
C14   N34   1.437421 S    
N38   O61   1.301046 A    
N9    H6    1.042312 S    
C7    C8    1.417595 A    
C26   N5    1.437428 S    
C28   C36   1.478988 S    
C50   C51   1.415682 A    
N5    O32   1.298938 A    
N29   O51   1.301353 A    
N49   O72   1.300016 A    
C81   N50   1.436296 S    
N70   H75   1.045486 S    
C17   C18   1.412104 A    
C32   N8    1.429198 S    
N19   H19   1.044776 S    
N53   H56   1.043143 S    
C48   N19   1.437155 S    
C66   N32   1.435127 S    
C73   N40   1.437235 S    
C63   C64   1.413633 A    
C75   C76   1.408917 A    
N59   O80   1.300407 A    
C9    C10   1.409059 A    
N14   H10   1.045449 S    
O25   Cr6   1.916231 S    
C13   C14   1.398608 A    
C12   N12   1.433968 S    
C67   C68   1.410504 A    
N71   H77   1.043258 S    
O12   C6    1.279546 A    
C7    C12   1.421861 A    
C75   N43   1.433805 S    
C102  N59   1.429496 S    
C82   C83   1.407846 A    
N20   H22   1.044629 S    
N1    O28   1.301330 A    
C1    O3    1.268819 A    
C53   N26   1.437581 S    
C104  C105  1.423914 A    
C85   C90   1.408033 A    
N32   O57   1.301340 A    
N24   H28   1.052904 S    
C13   N45   1.441002 S    
N40   O65   1.300816 A    
C91   C95   1.408804 A    
C22   N23   1.435502 S    
C106  N64   1.438126 S    
N18   H18   1.045751 S    
C116  O18   1.287140 A    
N39   O63   1.299806 A    
C37   C38   1.401541 A    
O17   Cr5   1.921883 S    
C84   N46   1.432352 S    
N44   H48   1.045264 S    
C65   N42   1.438078 S    
C83   N55   1.434786 S    
N36   H37   1.044077 S    
C55   C56   1.393238 A    
C101  C102  1.389219 A    
C91   N53   1.436535 S    
N30   O53   1.300839 A    
N41   H42   1.042949 S    
C73   C77   1.411632 A    
C86   C87   1.412876 A    
O14   C117  1.285807 A    
C47   C48   1.398907 A    
C51   C59   1.472840 S    
C4    O9    1.289650 A    
N58   O78   1.301454 A    
C33   C34   1.413979 A    
N19   H20   1.045979 S    
O10   C5    1.287262 A    
C21   N4    1.440053 S    
O20   Cr4   2.042426 S    
C71   N39   1.426575 S    
N15   H12   1.047044 S    
C71   C72   1.406912 A    
C85   C86   1.408543 A    
C57   C58   1.412349 A    
C19   C20   1.392860 A    
N26   H30   1.044198 S    
O17   C116  1.280502 A    
C86   N48   1.435848 S    
N21   H23   1.044713 S    
O8    Cr1   1.925241 S    
C10   C11   1.403249 A    
N60   O82   1.299313 A    
C6    C96   1.490508 S    
C14   C15   1.414236 A    
N64   H70   1.041650 S    
C92   N54   1.434733 S    
N31   O55   1.300982 A    
C87   C95   1.475632 S    
C3    C42   1.492859 S    
N49   O71   1.299971 A    
N72   H79   1.043522 S    
N26   H29   1.045241 S    
C79   C80   1.414884 A    
C52   C53   1.403902 A    
N52   O76   1.300782 A    
Cr6   O26   1.992379 S    
N65   H72   1.046237 S    
C35   N13   1.433804 S    
C56   C60   1.426009 A    
C89   N52   1.431295 S    
N6    O34   1.300291 A    
N55   H59   1.044751 S    
N69   H74   1.044095 S    
C112  N60   1.446115 S    
O15   Cr4   1.927339 S    
N50   H54   1.044108 S    
C74   C78   1.415872 A    
C9    N56   1.436104 S    
N61   O84   1.301493 A    
O1    Cr1   2.042854 S    
C51   C52   1.414142 A    
O10   Cr2   1.920220 S    
O1    C3    1.273329 A    
C68   C69   1.421746 A    
C57   N30   1.441308 S    
N62   H66   1.044679 S    
N23   H25   1.043987 S    
C37   C41   1.409013 A    
C79   C84   1.415187 A    
C103  C108  1.411145 A    
C13   C18   1.413187 A    
C92   C96   1.417015 A    
C44   C45   1.412245 A    
C19   C23   1.406021 A    
C46   C47   1.405474 A    
N63   H67   1.045408 S    
C43   C117  1.493404 S    
O7    Cr1   2.046609 S    
C68   N35   1.441726 S    
N66   O86   1.300198 A    
C34   C35   1.409173 A    
N27   H32   1.055846 S    
C105  C106  1.416954 A    
C110  N68   1.435311 S    
C111  N70   1.432537 S    
Cr2   O13   1.992329 S    
C88   N51   1.434688 S    
C109  C110  1.407290 A    
C63   N37   1.434941 S    
C57   C60   1.416776 A    
C26   C27   1.408235 A    
N12   O44   1.301446 A    
C111  C112  1.419540 A    
N10   O39   1.299621 A    
C20   N2    1.436593 S    
N34   H36   1.044808 S    
C97   C98   1.417634 A    
C55   N27   1.440369 S    
C103  N62   1.438214 S    
C100  C108  1.480186 S    
C52   N25   1.445953 S    
C105  C113  1.493335 S    
C103  C104  1.409747 A    
N67   O88   1.300822 A    
C89   C90   1.410295 A    
C16   C17   1.400154 A    
N43   H45   1.043718 S    
N59   O79   1.301132 A    
O5    Cr3   2.041485 S    
C93   C94   1.405138 A    
N46   O67   1.301003 A    
N39   O64   1.298819 A    
N37   H39   1.044629 S    
C104  N61   1.444975 S    
C76   C77   1.411371 A    
N54   H58   1.043821 S    
N13   H7    1.044460 S    
N8    O38   1.299958 A    
O19   C117  1.276949 A    
N38   O62   1.300998 A    
N9    H5    1.044821 S    
C39   C42   1.415654 A    
C87   C88   1.401670 A    
C118  O22   1.272742 A    
C73   C74   1.412908 A    
C99   C100  1.413824 A    
N48   O70   1.299866 A    
N7    O35   1.300765 A    
N5    O31   1.302607 A    
N17   H15   1.045799 S    
C34   N11   1.441725 S    
N11   O41   1.300843 A    
O20   C120  1.268882 A    
N70   H76   1.040769 S    
C65   C66   1.399063 A    
O21   Cr4   1.926702 S    
C76   N33   1.435571 S    
C43   C48   1.424741 A    
N45   H49   1.045219 S    
C58   N20   1.435022 S    
N2    H1    1.045530 S    
N11   O42   1.301087 A    
C5    O11   1.284671 A    
O16   Cr5   2.045831 S    
C100  C101  1.404054 A    
N25   O48   1.300674 A    
C45   N24   1.438809 S    
C10   C18   1.470818 S    
O22   Cr5   2.038836 S    
N3    H3    1.044034 S    
C56   N28   1.436204 S    
O6    C3    1.281763 A    
N57   H64   1.045888 S    
O23   Cr5   1.927540 S    
C25   C30   1.414543 A    
N16   H13   1.045105 S    
N71   H78   1.044004 S    
C45   C46   1.412838 A    
C98   N58   1.439313 S    
N32   O58   1.300370 A    
N55   H60   1.042130 S    
C58   C59   1.412415 A    
C31   C32   1.398261 A    
C20   C24   1.413334 A    
Cr1   O13   1.978305 S    
N22   O45   1.301472 A    
C49   N22   1.444869 S    
Cr4   O26   1.977695 S    
N37   H40   1.043344 S    
C62   C63   1.418055 A    
O15   C115  1.280766 A    
N31   O56   1.301565 A    
C29   N16   1.436909 S    
C80   N44   1.434756 S    
O24   Cr6   2.039900 S    
N36   H38   1.044357 S    
C93   N57   1.435302 S    
N56   H61   1.045767 S    
N23   H26   1.044657 S    
C83   C84   1.398287 A    
C99   N63   1.433806 S    
C91   C92   1.401267 A    
C80   C81   1.408250 A    
N30   O54   1.301618 A    
N25   O47   1.301069 A    
N42   H43   1.045054 S    
C1    C60   1.491602 S    
N63   H68   1.043213 S    
N42   H44   1.043488 S    
N68   O89   1.303544 A    
N68   O90   1.301787 A    
N29   O52   1.302171 A    
Cr5   O26   1.984531 S    
N35   O59   1.300153 A    
C61   C119  1.500570 S    
N27   H31   1.052237 S    
C70   C71   1.406125 A    
C38   C42   1.417421 A    
C32   C33   1.409333 A    
C64   C65   1.406796 A    
O6    Cr3   1.921366 S    
O8    C4    1.279266 A    
N14   H9    1.043809 S    
O2    C1    1.295701 A    
N1    O27   1.301064 A    
C111  C114  1.408567 A    
C31   N9    1.437738 S    
O21   C118  1.280018 A    
C55   C59   1.403767 A    
N67   O87   1.300617 A    
C115  O16   1.278655 A    
C15   C23   1.470562 S    
C74   N41   1.434279 S    
N40   O66   1.300852 A    
N20   H21   1.044904 S    
N24   H27   1.050974 S    
N72   H80   1.044644 S    
O14   Cr4   2.043840 S    
C97   C102  1.416895 A    
C29   C30   1.409135 A    
C49   C50   1.407259 A    
N28   O49   1.301887 A    
C11   C12   1.396621 A    
C106  C107  1.402333 A    
O18   Cr6   2.033225 S    
N65   H71   1.042790 S    
N41   H41   1.045401 S    
