data_mof_unit_874.cif
_audit_creation_date              2012-12-11T16:26:13-0500
_audit_creation_method            fapswitch 2.2
_symmetry_space_group_name_H-M    P1
_symmetry_Int_Tables_number       1
_space_group_crystal_system       triclinic
_cell_length_a                    13.96007
_cell_length_b                    13.974737
_cell_length_c                    31.693776
_cell_angle_alpha                 89.505536
_cell_angle_beta                  90.111378
_cell_angle_gamma                 119.504045
_cell_volume                      5381.04908261

loop_
_atom_site_label
_atom_site_type_symbol
_atom_type_description
_atom_site_fract_x
_atom_site_fract_y
_atom_site_fract_z
_atom_type_partial_charge
C1    C     C_R   0.564819 0.444805 0.809793 0.545071
C2    C     C_R   0.875406 0.431697 0.688954 0.560626
C3    C     C_R   0.554456 0.118062 0.809451 0.546836
C4    C     C_R   0.565118 0.448221 0.690979 0.543719
C5    C     C_R   0.879041 0.433616 0.810597 0.553642
C6    C     C_R   0.554174 0.118573 0.690885 0.551991
C7    C     C_R   0.446249 0.566231 0.310073 0.544409
C8    C     C_R   0.433869 0.879365 0.189356 0.555993
C9    C     C_R   0.123303 0.555075 0.310779 0.545959
C10   C     C_R   0.445501 0.565145 0.190337 0.547111
C11   C     C_R   0.430772 0.874687 0.311320 0.558117
C12   C     C_R   0.119238 0.555032 0.190294 0.554918
C13   C     C_1   0.022193 0.546708 0.017977 -0.045190
C14   C     C_1   0.552615 0.014267 0.482570 -0.044892
C15   C     C_1   0.476883 0.480289 0.019070 -0.048268
C16   C     C_1   0.005426 0.574387 0.480765 -0.034419
C17   C     C_1   0.545166 0.019681 0.019347 -0.045517
C18   C     C_1   0.458125 0.498487 0.485362 -0.052329
C19   C     C_1   0.560415 0.027668 0.520048 -0.046043
C20   C     C_1   0.020868 0.546620 0.979931 -0.043214
C21   C     C_1   0.461012 0.498997 0.523585 -0.040095
C22   C     C_1   0.544463 0.020445 0.981319 -0.041372
C23   C     C_1   0.986285 0.567132 0.517879 -0.039235
C24   C     C_1   0.479455 0.477211 0.981185 -0.048025
C25   C     C_R   0.946520 0.480459 0.850237 -0.001116
C26   C     C_R   0.533888 0.054402 0.651632 0.001838
C27   C     C_R   0.516333 0.462259 0.849049 0.009144
C28   C     C_R   0.922671 0.466993 0.646042 0.011153
C29   C     C_R   0.536596 0.049438 0.848341 0.001164
C30   C     C_R   0.521973 0.481155 0.653412 -0.001502
C31   C     C_R   0.461695 0.921600 0.354690 0.000623
C32   C     C_R   0.053321 0.537949 0.150943 0.009999
C33   C     C_R   0.470293 0.529264 0.351275 -0.000154
C34   C     C_R   0.480669 0.947230 0.149518 -0.000689
C35   C     C_R   0.070476 0.537159 0.353006 -0.001052
C36   C     C_R   0.464296 0.517531 0.151201 0.008208
C37   C     C_R   0.957766 0.580042 0.867225 0.066670
C38   C     C_R   0.608997 0.022081 0.636508 0.042784
C39   C     C_R   0.433571 0.369421 0.870934 0.068906
C40   C     C_R   0.992211 0.579452 0.636546 0.052952
C41   C     C_R   0.629040 0.052219 0.867657 0.062483
C42   C     C_R   0.413355 0.416643 0.638465 0.051092
C43   C     C_R   0.571597 0.000654 0.364244 0.053489
C44   C     C_R   0.055050 0.629965 0.131576 0.060890
C45   C     C_R   0.399000 0.424511 0.369166 0.057986
C46   C     C_R   0.580407 0.958986 0.132270 0.070506
C47   C     C_R   0.999481 0.579520 0.361941 0.051847
C48   C     C_R   0.372074 0.433168 0.130188 0.067783
C49   C     C_R   0.982428 0.603676 0.910464 0.014845
C50   C     C_R   0.613375 0.005424 0.592669 0.017723
C51   C     C_R   0.425205 0.372757 0.914953 0.021514
C52   C     C_R   0.018114 0.613662 0.593964 0.021722
C53   C     C_R   0.635270 0.049855 0.911828 0.017810
C54   C     C_R   0.388275 0.430655 0.596177 0.023948
C55   C     C_R   0.601981 0.035600 0.406440 0.028246
C56   C     C_R   0.052544 0.636707 0.087421 0.019383
C57   C     C_R   0.395716 0.410658 0.414232 0.014572
C58   C     C_R   0.603106 0.981865 0.088773 0.017979
C59   C     C_R   0.972649 0.587581 0.404381 0.023119
C60   C     C_R   0.374122 0.425194 0.086158 0.021959
C61   C     C_R   0.016441 0.540363 0.934272 0.022717
C62   C     C_R   0.551174 0.033535 0.565086 0.011219
C63   C     C_R   0.484552 0.474368 0.935712 0.018211
C64   C     C_R   0.959148 0.538535 0.561636 0.021912
C65   C     C_R   0.539119 0.019571 0.935688 0.018270
C66   C     C_R   0.474365 0.504362 0.569296 0.014783
C67   C     C_R   0.523294 0.985444 0.439061 0.012483
C68   C     C_R   0.022799 0.541140 0.063645 0.016353
C69   C     C_R   0.463538 0.504491 0.439251 0.003448
C70   C     C_R   0.539576 0.015621 0.065011 0.021161
C71   C     C_R   0.028006 0.565377 0.437169 0.013444
C72   C     C_R   0.475056 0.485792 0.064542 0.018372
C73   C     C_R   0.040408 0.465223 0.914040 0.027824
C74   C     C_R   0.465398 0.049153 0.581243 0.020243
C75   C     C_R   0.545775 0.573276 0.912247 0.021414
C76   C     C_R   0.883256 0.427762 0.571276 0.019317
C77   C     C_R   0.436599 0.984359 0.915072 0.032044
C78   C     C_R   0.574000 0.585782 0.587339 0.025839
C79   C     C_R   0.413062 0.906124 0.430147 0.021090
C80   C     C_R   0.989491 0.438743 0.084426 0.023812
C81   C     C_R   0.545164 0.602830 0.420028 0.023385
C82   C     C_R   0.464873 0.040170 0.085386 0.028033
C83   C     C_R   0.094984 0.518435 0.428358 0.011826
C84   C     C_R   0.574457 0.548274 0.087201 0.021944
C85   C     C_R   0.993522 0.424820 0.873664 -0.016736
C86   C     C_R   0.448320 0.043290 0.625061 0.000810
C87   C     C_R   0.559667 0.567630 0.867889 -0.005327
C88   C     C_R   0.882633 0.389676 0.612717 -0.020281
C89   C     C_R   0.434855 0.996819 0.870344 -0.001570
C90   C     C_R   0.592623 0.579875 0.630874 0.001373
C91   C     C_R   0.380784 0.880142 0.387602 -0.016548
C92   C     C_R   0.002222 0.436493 0.129080 0.000385
C93   C     C_R   0.557339 0.608440 0.375991 0.001052
C94   C     C_R   0.424645 0.993787 0.126075 -0.016319
C95   C     C_R   0.103578 0.490749 0.386323 -0.021652
C96   C     C_R   0.569526 0.562857 0.131542 -0.006575
Cr1   Cr    Cr6+3 0.504240 0.249200 0.750000 1.070586
Cr2   Cr    Cr6+3 0.744960 0.495760 0.750000 1.065957
Cr3   Cr    Cr6+3 0.750800 0.255040 0.750000 1.077249
Cr4   Cr    Cr6+3 0.249200 0.504240 0.250000 1.074114
Cr5   Cr    Cr6+3 0.495760 0.744960 0.250000 1.057463
Cr6   Cr    Cr6+3 0.255040 0.750800 0.250000 1.064688
O1    O     O_R   0.480350 0.140770 0.796330 -0.498626
O2    O     O_R   0.660420 0.519650 0.703670 -0.524421
O3    O     O_R   0.859230 0.339580 0.796330 -0.511083
O4    O     O_R   0.480350 0.140770 0.703670 -0.513487
O5    O     O_R   0.660420 0.519650 0.796330 -0.505498
O6    O     O_R   0.859230 0.339580 0.703670 -0.510458
O7    O     O_R   0.140770 0.480350 0.296330 -0.511712
O8    O     O_R   0.519650 0.660420 0.203670 -0.506385
O9    O     O_R   0.339580 0.859230 0.296330 -0.514959
O10   O     O_R   0.140770 0.480350 0.203670 -0.496961
O11   O     O_R   0.519650 0.660420 0.296330 -0.521444
O12   O     O_R   0.339580 0.859230 0.203670 -0.511584
O13   O     O_R   0.514930 0.348530 0.793250 -0.451701
O14   O     O_R   0.833600 0.485070 0.706750 -0.467201
O15   O     O_R   0.651470 0.166400 0.793250 -0.456335
O16   O     O_R   0.514930 0.348530 0.706750 -0.462479
O17   O     O_R   0.833600 0.485070 0.793250 -0.446391
O18   O     O_R   0.651470 0.166400 0.706750 -0.473832
O19   O     O_R   0.348530 0.514930 0.293250 -0.473293
O20   O     O_R   0.485070 0.833600 0.206750 -0.446616
O21   O     O_R   0.166400 0.651470 0.293250 -0.481706
O22   O     O_R   0.348530 0.514930 0.206750 -0.450854
O23   O     O_R   0.485070 0.833600 0.293250 -0.472326
O24   O     O_R   0.166400 0.651470 0.206750 -0.455057
O25   O     O_3   0.666667 0.333333 0.750000 -0.253346
O26   O     O_3   0.333333 0.666667 0.250000 -0.255596
I1    I     I_    0.947560 0.703062 0.828542 -0.381614
I2    I     I_    0.705782 0.988387 0.680597 -0.424816
I3    I     I_    0.307190 0.228985 0.837981 -0.396830
I4    I     I_    0.065897 0.694370 0.687055 -0.426823
I5    I     I_    0.745416 0.031805 0.830131 -0.409846
I6    I     I_    0.285448 0.320601 0.682884 -0.434098
I7    I     I_    0.689656 0.070788 0.313952 -0.416953
I8    I     I_    0.031528 0.744004 0.169011 -0.417678
I9    I     I_    0.319932 0.294716 0.323954 -0.410836
I10   I     I_    0.705396 0.954574 0.171191 -0.386298
I11   I     I_    0.927101 0.621884 0.310298 -0.425893
I12   I     I_    0.235860 0.303847 0.164623 -0.405283
C97   C     C_3   0.094551 0.748578 0.066381 -0.255002
C98   C     C_3   0.002302 0.771460 0.053680 -0.436460
H1    H     H_    0.947873 0.760022 0.080938 0.183313
H2    H     H_    0.038335 0.857620 0.042139 0.132723
H3    H     H_    0.953024 0.716492 0.027868 0.144351
H4    H     H_    0.151517 0.814614 0.087784 0.157029
H5    H     H_    0.144957 0.755976 0.038278 0.133165
C99   C     C_3   0.718435 0.123955 0.417362 -0.248268
C100  C     C_3   0.789511 0.073052 0.429571 -0.446893
H6    H     H_    0.803585 0.033997 0.401729 0.168722
H7    H     H_    0.870214 0.137804 0.441473 0.121537
H8    H     H_    0.749501 0.010506 0.454916 0.151964
H9    H     H_    0.757980 0.183375 0.391073 0.179751
H10   H     H_    0.717240 0.174797 0.443911 0.139456
C101  C     C_3   0.266868 0.357468 0.062460 -0.252452
C102  C     C_3   0.244168 0.240481 0.054825 -0.435317
H11   H     H_    0.239865 0.197678 0.084935 0.181081
H12   H     H_    0.164075 0.193216 0.038465 0.129901
H13   H     H_    0.309939 0.241631 0.035067 0.148548
H14   H     H_    0.196643 0.354477 0.080003 0.166502
H15   H     H_    0.267862 0.397452 0.031955 0.132935
C103  C     C_3   0.883077 0.615329 0.414976 -0.249461
C104  C     C_3   0.930137 0.735232 0.427683 -0.448781
H16   H     H_    0.982053 0.790782 0.401954 0.166118
H17   H     H_    0.861935 0.752305 0.434075 0.121160
H18   H     H_    0.979122 0.752422 0.456993 0.146162
H19   H     H_    0.825506 0.596817 0.388402 0.172562
H20   H     H_    0.830785 0.561414 0.440925 0.136550
C105  C     C_3   0.694151 0.969396 0.067680 -0.260291
C106  C     C_3   0.657289 0.848588 0.059573 -0.430957
H21   H     H_    0.636680 0.801336 0.089687 0.185024
H22   H     H_    0.583943 0.812114 0.038704 0.151192
H23   H     H_    0.724641 0.841929 0.043756 0.123472
H24   H     H_    0.719154 0.014506 0.037261 0.133748
H25   H     H_    0.770658 0.007532 0.086605 0.172376
C107  C     C_3   0.323627 0.304161 0.439132 -0.264029
C108  C     C_3   0.250362 0.196078 0.416998 -0.426682
H26   H     H_    0.186922 0.201759 0.397825 0.175387
H27   H     H_    0.300481 0.169859 0.398358 0.192516
H28   H     H_    0.205968 0.131145 0.441259 0.114396
H29   H     H_    0.379414 0.288861 0.459527 0.145293
H30   H     H_    0.269100 0.319400 0.460121 0.133095
C109  C     C_3   0.673215 0.947889 0.575416 -0.253057
C110  C     C_3   0.783259 0.025927 0.554515 -0.449966
H31   H     H_    0.846468 0.070035 0.578921 0.160507
H32   H     H_    0.810883 0.977580 0.535485 0.127323
H33   H     H_    0.776712 0.086107 0.533348 0.151354
H34   H     H_    0.687438 0.900562 0.600236 0.161576
H35   H     H_    0.619307 0.885419 0.552188 0.131867
C111  C     C_3   0.971817 0.695775 0.931338 -0.260706
C112  C     C_3   0.851569 0.659828 0.941077 -0.428756
H36   H     H_    0.802112 0.637696 0.911685 0.185731
H37   H     H_    0.816367 0.587704 0.962831 0.151329
H38   H     H_    0.846165 0.728077 0.956486 0.123480
H39   H     H_    0.019255 0.721946 0.961046 0.132562
H40   H     H_    0.009090 0.771528 0.911690 0.170539
C113  C     C_3   0.270166 0.377892 0.580966 -0.253183
C114  C     C_3   0.229790 0.263087 0.563668 -0.444123
H41   H     H_    0.245716 0.212130 0.586421 0.171260
H42   H     H_    0.139891 0.222926 0.557704 0.130734
H43   H     H_    0.271780 0.268403 0.533473 0.139594
H44   H     H_    0.214927 0.374645 0.606634 0.174218
H45   H     H_    0.262108 0.429980 0.556142 0.137528
C115  C     C_3   0.746895 0.092114 0.932809 -0.255156
C116  C     C_3   0.770305 0.000098 0.945448 -0.437798
H46   H     H_    0.761561 0.947677 0.918029 0.183400
H47   H     H_    0.855772 0.036298 0.957512 0.132514
H48   H     H_    0.713680 0.948712 0.970833 0.144043
H49   H     H_    0.813240 0.149893 0.911345 0.156501
H50   H     H_    0.753382 0.141557 0.960992 0.133143
C117  C     C_3   0.107705 0.728895 0.582901 -0.257541
C118  C     C_3   0.060924 0.806638 0.577766 -0.443134
H51   H     H_    0.996406 0.776158 0.553018 0.148072
H52   H     H_    0.025381 0.813906 0.608025 0.178756
H53   H     H_    0.127272 0.889579 0.568297 0.118748
H54   H     H_    0.172940 0.759523 0.607128 0.166668
H55   H     H_    0.150508 0.728853 0.553480 0.136978
C119  C     C_3   0.357857 0.266327 0.939642 -0.252441
C120  C     C_3   0.240422 0.243261 0.947225 -0.435476
H56   H     H_    0.240861 0.308906 0.966637 0.148372
H57   H     H_    0.198254 0.238788 0.917047 0.180588
H58   H     H_    0.192949 0.163261 0.963953 0.129873
H59   H     H_    0.355628 0.195730 0.922956 0.166521
H60   H     H_    0.397767 0.268695 0.970185 0.132264
C121  C     C_3   0.952863 0.328210 0.154031 -0.262889
C122  C     C_3   0.870493 0.321754 0.187281 -0.403278
H61   H     H_    0.911603 0.385249 0.211829 0.178927
H62   H     H_    0.804835 0.333002 0.172116 0.149757
H63   H     H_    0.831704 0.239809 0.203018 0.187800
H64   H     H_    0.906675 0.255007 0.134210 0.154744
H65   H     H_    0.017919 0.316485 0.169036 0.210931
C123  C     C_3   0.259893 0.807167 0.377341 -0.238813
C124  C     C_3   0.206643 0.875456 0.363144 -0.372364
H66   H     H_    0.258846 0.941203 0.340342 0.195830
H67   H     H_    0.126259 0.821395 0.348176 0.176596
H68   H     H_    0.192818 0.916219 0.390401 0.123348
H69   H     H_    0.251913 0.746687 0.354033 0.173025
H70   H     H_    0.210631 0.752098 0.403086 0.135144
C125  C     C_3   0.674035 0.618105 0.158463 -0.263661
C126  C     C_3   0.672915 0.541806 0.193634 -0.403765
H71   H     H_    0.606514 0.522857 0.216874 0.171327
H72   H     H_    0.661324 0.463803 0.180021 0.150386
H73   H     H_    0.752699 0.582201 0.210658 0.188580
H74   H     H_    0.749929 0.641356 0.140405 0.162263
H75   H     H_    0.686222 0.696307 0.171748 0.204435
C127  C     C_3   0.139745 0.406028 0.377425 -0.255323
C128  C     C_3   0.043447 0.299391 0.360672 -0.386962
H76   H     H_    0.980389 0.259524 0.385727 0.136158
H77   H     H_    0.003337 0.313941 0.333055 0.203774
H78   H     H_    0.072757 0.241950 0.351225 0.163876
H79   H     H_    0.211010 0.440082 0.355841 0.199086
H80   H     H_    0.169197 0.381461 0.405565 0.145501
C129  C     C_3   0.321306 0.991919 0.142745 -0.262188
C130  C     C_3   0.348771 0.079644 0.176184 -0.379483
H81   H     H_    0.400629 0.162802 0.162224 0.159941
H82   H     H_    0.271557 0.073967 0.188311 0.186903
H83   H     H_    0.393626 0.068421 0.203005 0.183045
H84   H     H_    0.271631 0.001640 0.117647 0.121811
H85   H     H_    0.260647 0.909851 0.154198 0.207549
C131  C     C_3   0.668186 0.689162 0.355930 -0.245517
C132  C     C_3   0.686904 0.806538 0.350173 -0.365775
H86   H     H_    0.696811 0.829805 0.316229 0.203575
H87   H     H_    0.617522 0.814705 0.363201 0.175230
H88   H     H_    0.763993 0.866157 0.366177 0.117774
H89   H     H_    0.735114 0.692057 0.375559 0.130124
H90   H     H_    0.678830 0.657531 0.325243 0.182524
C133  C     C_3   0.333719 0.002694 0.643178 -0.250638
C134  C     C_3   0.301324 0.091885 0.647232 -0.372275
H91   H     H_    0.287770 0.102571 0.680950 0.208293
H92   H     H_    0.365699 0.171928 0.634216 0.180114
H93   H     H_    0.222539 0.066487 0.630526 0.125663
H94   H     H_    0.273225 0.936343 0.622985 0.135464
H95   H     H_    0.325659 0.962507 0.674429 0.179826
C135  C     C_3   0.991223 0.321322 0.857358 -0.261695
C136  C     C_3   0.079142 0.348320 0.823654 -0.378621
H96   H     H_    0.162380 0.399996 0.837241 0.157307
H97   H     H_    0.073273 0.271012 0.811874 0.188344
H98   H     H_    0.068210 0.393119 0.796658 0.181987
H99   H     H_    0.000529 0.271552 0.882626 0.120964
H100  H     H_    0.908990 0.260949 0.846301 0.207011
C137  C     C_3   0.675613 0.683159 0.654234 -0.234780
C138  C     C_3   0.794866 0.706802 0.650095 -0.372429
H101  H     H_    0.842220 0.751038 0.678474 0.181047
H102  H     H_    0.799096 0.629917 0.646881 0.192404
H103  H     H_    0.835791 0.760105 0.622368 0.122935
H104  H     H_    0.669208 0.755300 0.643393 0.141028
H105  H     H_    0.652912 0.678327 0.688049 0.179072
C139  C     C_3   0.327240 0.945275 0.845426 -0.248981
C140  C     C_3   0.265576 0.819374 0.848206 -0.432040
H106  H     H_    0.324033 0.786959 0.848195 0.152409
H107  H     H_    0.212697 0.789532 0.876651 0.162222
H108  H     H_    0.210480 0.784905 0.820515 0.185267
H109  H     H_    0.273685 0.978889 0.855509 0.175173
H110  H     H_    0.342410 0.963620 0.811317 0.188438
C141  C     C_3   0.854796 0.271215 0.620453 -0.261890
C142  C     C_3   0.957093 0.265103 0.633931 -0.393763
H111  H     H_    0.016577 0.292175 0.607305 0.130302
H112  H     H_    0.998511 0.317723 0.661503 0.200217
H113  H     H_    0.933854 0.179143 0.642347 0.175476
H114  H     H_    0.787258 0.230575 0.643538 0.207164
H115  H     H_    0.825728 0.220827 0.591987 0.133389
C143  C     C_3   0.612058 0.671452 0.840110 -0.261291
C144  C     C_3   0.534229 0.666915 0.805121 -0.411607
H116  H     H_    0.455149 0.652649 0.818974 0.149957
H117  H     H_    0.572283 0.746421 0.787605 0.177761
H118  H     H_    0.517524 0.600929 0.782245 0.166552
H119  H     H_    0.633041 0.747125 0.857621 0.163298
H120  H     H_    0.691113 0.685807 0.826550 0.205344
C145  C     C_3   0.942890 0.333924 0.058544 -0.270763
C146  C     C_3   0.818294 0.282141 0.054253 -0.437661
H121  H     H_    0.777443 0.258451 0.085593 0.162996
H122  H     H_    0.797288 0.340945 0.038726 0.152713
H123  H     H_    0.786373 0.207721 0.034492 0.130947
H124  H     H_    0.979254 0.350501 0.026558 0.138781
H125  H     H_    0.965857 0.274235 0.071663 0.131658
C147  C     C_3   0.331440 0.844018 0.466216 -0.263201
C148  C     C_3   0.244230 0.879390 0.471845 -0.445957
H126  H     H_    0.275343 0.965564 0.461054 0.154838
H127  H     H_    0.167782 0.824645 0.454814 0.149006
H128  H     H_    0.220585 0.872926 0.505461 0.124070
H129  H     H_    0.291774 0.754060 0.461185 0.124167
H130  H     H_    0.372531 0.853068 0.496963 0.143413
C149  C     C_3   0.684140 0.598212 0.063721 -0.273383
C150  C     C_3   0.729758 0.518807 0.064350 -0.437637
H131  H     H_    0.732457 0.490449 0.096945 0.165514
H132  H     H_    0.677934 0.447106 0.044374 0.145787
H133  H     H_    0.813724 0.558448 0.051029 0.149429
H134  H     H_    0.676064 0.617787 0.030403 0.136964
H135  H     H_    0.744362 0.679434 0.076485 0.129689
C151  C     C_3   0.157872 0.498933 0.463842 -0.266480
C152  C     C_3   0.089518 0.385714 0.484545 -0.441178
H136  H     H_    0.037779 0.389834 0.510114 0.153662
H137  H     H_    0.035737 0.323041 0.461389 0.150703
H138  H     H_    0.144755 0.358523 0.498648 0.127494
H139  H     H_    0.237346 0.509410 0.452019 0.133236
H140  H     H_    0.183605 0.563105 0.488420 0.137278
C153  C     C_3   0.431152 0.116710 0.063123 -0.270927
C154  C     C_3   0.530578 0.228980 0.053415 -0.444732
H141  H     H_    0.578136 0.265318 0.082717 0.157991
H142  H     H_    0.585216 0.223477 0.029424 0.153494
H143  H     H_    0.501878 0.284678 0.040694 0.140310
H144  H     H_    0.386262 0.078669 0.033606 0.131156
H145  H     H_    0.377381 0.136061 0.082350 0.147950
C155  C     C_3   0.616434 0.703313 0.446396 -0.276527
C156  C     C_3   0.550653 0.757049 0.461649 -0.442521
H146  H     H_    0.516783 0.779603 0.434042 0.163040
H147  H     H_    0.481613 0.701391 0.482581 0.150439
H148  H     H_    0.605404 0.832545 0.479380 0.132928
H149  H     H_    0.651575 0.679163 0.472441 0.146795
H150  H     H_    0.689321 0.767464 0.429751 0.140687
C157  C     C_3   0.394493 0.075002 0.552141 -0.279311
C158  C     C_3   0.452738 0.196370 0.540757 -0.440169
H151  H     H_    0.475799 0.247969 0.569472 0.161522
H152  H     H_    0.526787 0.216202 0.521999 0.159779
H153  H     H_    0.397937 0.214067 0.521072 0.127680
H154  H     H_    0.377937 0.028341 0.522862 0.158076
H155  H     H_    0.312980 0.052120 0.565595 0.138681
C159  C     C_3   0.116748 0.430900 0.936061 -0.270916
C160  C     C_3   0.229325 0.529588 0.945312 -0.446441
H156  H     H_    0.265964 0.577346 0.915839 0.154317
H157  H     H_    0.224063 0.583847 0.969364 0.153386
H158  H     H_    0.284660 0.500246 0.957821 0.142810
H159  H     H_    0.135953 0.377227 0.916812 0.148692
H160  H     H_    0.078629 0.385674 0.965711 0.128365
C161  C     C_3   0.659645 0.678126 0.560181 -0.268897
C162  C     C_3   0.737102 0.643898 0.539980 -0.449446
H161  H     H_    0.777386 0.618542 0.564442 0.166471
H162  H     H_    0.690245 0.574264 0.518392 0.152779
H163  H     H_    0.801869 0.713785 0.521608 0.123987
H164  H     H_    0.617945 0.702806 0.536470 0.140676
H165  H     H_    0.709921 0.754800 0.577471 0.136736
C163  C     C_3   0.331558 0.937540 0.941321 -0.259257
C164  C     C_3   0.299716 0.823183 0.958715 -0.443106
H166  H     H_    0.309855 0.772532 0.934269 0.154246
H167  H     H_    0.350997 0.828576 0.986322 0.154973
H168  H     H_    0.212479 0.780972 0.968868 0.128794
H169  H     H_    0.342689 0.993502 0.967758 0.130867
H170  H     H_    0.261296 0.932465 0.923325 0.141132
C165  C     C_3   0.805622 0.351678 0.537162 -0.272651
C166  C     C_3   0.732660 0.394584 0.518747 -0.444340
H171  H     H_    0.676115 0.394304 0.543414 0.154165
H172  H     H_    0.781112 0.478673 0.506066 0.154970
H173  H     H_    0.684630 0.342045 0.492002 0.132147
H174  H     H_    0.746683 0.268739 0.549224 0.144400
H175  H     H_    0.853544 0.341595 0.511421 0.142757
C167  C     C_3   0.595689 0.683317 0.934909 -0.272788
C168  C     C_3   0.515150 0.727660 0.934971 -0.439332
H176  H     H_    0.481946 0.725531 0.902912 0.161112
H177  H     H_    0.446565 0.678332 0.957029 0.146702
H178  H     H_    0.555898 0.813332 0.946096 0.152742
H179  H     H_    0.617295 0.676331 0.968022 0.136580
H180  H     H_    0.676053 0.743766 0.921089 0.131332

loop_
_geom_bond_atom_site_label_1
_geom_bond_atom_site_label_2
_ccdc_geom_bond_type
C82   C94   A    
C18   C21   T    
Cr5   O11   S    
C167  H179  S    
C168  H178  S    
C35   C47   A    
C29   C89   A    
C153  C154  S    
C144  H117  S    
C5    O3    A    
C107  H30   S    
C45   C57   A    
C138  H101  S    
C5    O17   A    
C104  H17   S    
C10   O22   A    
C95   C127  S    
C12   O24   A    
C28   C40   A    
C143  H120  S    
Cr5   O26   S    
C33   C45   A    
C163  C164  S    
C135  C136  S    
C130  H82   S    
C2    O14   A    
C129  H84   S    
C136  H96   S    
C150  H131  S    
C105  H24   S    
C149  H135  S    
C139  H110  S    
Cr1   O13   S    
C8    O12   A    
C147  H130  S    
Cr4   O7    S    
C165  H175  S    
Cr5   O20   S    
C7    C33   S    
Cr6   O9    S    
C16   C71   S    
C109  H35   S    
C51   C119  S    
C146  H122  S    
C101  C102  S    
C65   C77   A    
C151  C152  S    
C112  H36   S    
C81   C155  S    
C67   C79   A    
C164  H168  S    
C157  H154  S    
C26   C38   A    
Cr5   O8    S    
C78   C90   A    
C147  C148  S    
Cr4   O22   S    
C80   C92   A    
C148  H128  S    
C109  C110  S    
Cr6   O12   S    
C133  H94   S    
C144  H116  S    
C77   C89   A    
C158  H151  S    
C136  H98   S    
C6    O4    A    
C156  H148  S    
Cr1   O1    S    
C5    C25   S    
C56   C97   S    
Cr2   O25   S    
C134  H92   S    
C92   C121  S    
C24   C63   S    
C96   C125  S    
C98   H2    S    
C99   H9    S    
C131  H90   S    
Cr6   O21   S    
C128  H78   S    
C3    O1    A    
C137  H104  S    
C155  H149  S    
C133  H95   S    
C13   C20   T    
C14   C19   T    
C34   C94   A    
C31   C91   A    
C77   C163  S    
C121  H64   S    
C42   I6    S    
C102  H12   S    
C112  H38   S    
C59   C103  S    
C109  H34   S    
C165  H174  S    
C32   C92   A    
C39   I3    S    
C150  H133  S    
C4    O2    A    
C2    O6    A    
C9    O21   A    
C37   I1    S    
C70   C82   A    
C60   C101  S    
C97   H5    S    
C47   C59   A    
C118  H51   S    
C160  H156  S    
C60   C72   A    
C114  H42   S    
C1    O13   A    
C80   C145  S    
C166  H171  S    
C39   C51   A    
C111  C112  S    
C21   C66   S    
C157  C158  S    
C41   I5    S    
C145  H125  S    
C119  H59   S    
C85   C135  S    
C15   C72   S    
C31   C43   A    
C73   C159  S    
Cr6   O26   S    
C100  H7    S    
C129  C130  S    
C106  H21   S    
C57   C107  S    
C158  H153  S    
C110  H31   S    
C20   C61   S    
C3    C29   S    
C76   C165  S    
C142  H113  S    
C108  H27   S    
Cr5   O23   S    
C14   C67   S    
C159  H160  S    
C34   C46   A    
C53   C65   A    
C124  H66   S    
C79   C91   A    
C153  H144  S    
C18   C69   S    
C117  H54   S    
C46   C58   A    
C7    O19   A    
C45   I9    S    
C71   C83   A    
C127  H79   S    
C116  H47   S    
C32   C44   A    
C163  H169  S    
C48   I12   S    
C135  H99   S    
C23   C64   S    
C58   C105  S    
C49   C111  S    
C130  H83   S    
C56   C68   A    
C74   C86   A    
C22   C65   S    
Cr3   O15   S    
C152  H137  S    
C118  H53   S    
C73   C85   A    
C25   C85   A    
C140  H106  S    
C113  H44   S    
C8    C34   S    
C27   C87   A    
C162  H163  S    
C41   C53   A    
C111  H39   S    
C1    O5    A    
C166  H173  S    
C103  H20   S    
C75   C87   A    
C15   C24   T    
C16   C23   T    
C154  H142  S    
C151  H139  S    
C123  H69   S    
C12   O10   A    
C43   C55   A    
C127  C128  S    
C29   C41   A    
Cr4   O26   S    
C167  H180  S    
C131  C132  S    
Cr6   O24   S    
C132  H88   S    
C133  C134  S    
C54   C66   A    
C154  H143  S    
C138  H102  S    
C110  H33   S    
C88   C141  S    
C120  H58   S    
C8    O20   A    
C55   C99   S    
C6    C26   S    
C63   C75   A    
C126  H71   S    
C36   C48   A    
C160  H158  S    
C113  C114  S    
C152  H138  S    
C161  H165  S    
C115  C116  S    
C138  H103  S    
C150  H132  S    
C122  H61   S    
C146  H123  S    
C13   C68   S    
C44   I8    S    
C137  H105  S    
C125  C126  S    
C30   C90   A    
C82   C153  S    
C165  C166  S    
C101  H15   S    
C54   C113  S    
C38   I2    S    
C11   O23   A    
C164  H167  S    
C140  H108  S    
Cr4   O19   S    
C148  H127  S    
C162  H161  S    
C3    O15   A    
C74   C157  S    
C104  H16   S    
C158  H152  S    
C115  H49   S    
C156  H147  S    
C141  H115  S    
C142  H112  S    
C90   C137  S    
C98   H3    S    
C99   H10   S    
C86   C133  S    
C66   C78   A    
C144  H118  S    
C128  H77   S    
C9    O7    A    
C107  H29   S    
C117  H55   S    
C155  H150  S    
C49   C61   A    
C84   C149  S    
C11   O9    A    
C104  H18   S    
C51   C63   A    
C52   C64   A    
C94   C129  S    
C120  H56   S    
Cr3   O25   S    
C168  H177  S    
C145  C146  S    
C143  H119  S    
C126  H73   S    
Cr2   O5    S    
C149  C150  S    
C152  H136  S    
C112  H37   S    
C130  H81   S    
Cr3   O6    S    
C37   C49   A    
C129  H85   S    
C117  C118  S    
C105  H25   S    
C139  H109  S    
C97   H4    S    
Cr1   O4    S    
C118  H52   S    
C147  H129  S    
Cr4   O10   S    
C141  C142  S    
C166  H172  S    
C103  C104  S    
C146  H121  S    
C58   C70   A    
C153  H145  S    
C33   C93   A    
C161  C162  S    
C145  H124  S    
C119  H60   S    
C141  H114  S    
C35   C95   A    
C17   C22   T    
C125  H75   S    
C61   C73   A    
C167  C168  S    
C100  H6    S    
C42   C54   A    
C132  H86   S    
C106  H22   S    
C123  C124  S    
C110  H32   S    
C10   O8    A    
C30   C42   A    
C69   C81   A    
C134  H91   S    
C89   C139  S    
C108  H26   S    
C47   I11   S    
C9    C35   S    
C98   H1    S    
C62   C74   A    
C10   C36   S    
C131  H89   S    
C164  H166  S    
C106  H23   S    
C68   C80   A    
C105  C106  S    
C50   C109  S    
Cr1   O25   S    
Cr2   O17   S    
C127  H80   S    
C116  H46   S    
C121  H65   S    
C163  H170  S    
C83   C151  S    
C135  H100  S    
C102  H11   S    
C136  H97   S    
C19   C62   S    
C149  H134  S    
C84   C96   A    
Cr1   O16   S    
C44   C56   A    
C25   C37   A    
Cr3   O18   S    
C27   C39   A    
C28   C88   A    
C52   C117  S    
C125  H74   S    
C76   C88   A    
C111  H40   S    
C46   I10   S    
C40   I4    S    
C11   C31   S    
C17   C70   S    
C151  H140  S    
C12   C32   S    
C123  H70   S    
C4    O16   A    
C148  H126  S    
C6    O18   A    
C124  H68   S    
C48   C60   A    
C78   C161  S    
Cr3   O3    S    
C53   C115  S    
C99   C100  S    
C100  H8    S    
C132  H87   S    
C137  C138  S    
C40   C52   A    
C120  H57   S    
C93   C131  S    
C81   C93   A    
C36   C96   A    
Cr2   O14   S    
C134  H93   S    
C26   C86   A    
C108  H28   S    
C83   C95   A    
C114  H43   S    
C126  H72   S    
C121  C122  S    
C64   C76   A    
C159  H159  S    
C160  H157  S    
C72   C84   A    
C155  C156  S    
C43   I7    S    
C124  H67   S    
C114  H41   S    
C161  H164  S    
C107  C108  S    
C122  H62   S    
C50   C62   A    
C116  H48   S    
C143  C144  S    
C142  H111  S    
C101  H14   S    
C102  H13   S    
C55   C67   A    
C128  H76   S    
C38   C50   A    
C122  H63   S    
C75   C167  S    
C91   C123  S    
C139  C140  S    
C7    O11   A    
C97   C98   S    
C119  C120  S    
Cr2   O2    S    
C140  H107  S    
C113  H45   S    
C159  C160  S    
C162  H162  S    
C103  H19   S    
C157  H155  S    
C154  H141  S    
C79   C147  S    
C115  H50   S    
C1    C27   S    
C87   C143  S    
C2    C28   S    
C57   C69   A    
C156  H146  S    
C4    C30   S    
C168  H176  S    
C59   C71   A    
