data_mof_unit_3860.cif
_audit_creation_date              2012-12-10T18:01:07-0500
_audit_creation_method            fapswitch 2.2
_symmetry_space_group_name_H-M    P1
_symmetry_Int_Tables_number       1
_space_group_crystal_system       triclinic
_cell_length_a                    19.234563
_cell_length_b                    18.314142
_cell_length_c                    26.337307
_cell_angle_alpha                 90.121881
_cell_angle_beta                  90.727434
_cell_angle_gamma                 88.792757
_cell_volume                      9274.87575379

loop_
_atom_site_label
_atom_site_type_symbol
_atom_type_description
_atom_site_fract_x
_atom_site_fract_y
_atom_site_fract_z
_atom_type_partial_charge
C1    C     C_R   0.858909 0.140355 0.753759 0.893947
C2    C     C_R   0.191450 0.205188 0.249041 -0.396426
C3    C     C_R   0.236723 0.681728 0.240496 0.395078
C4    C     C_1   0.873687 0.924501 0.551165 0.201463
C5    C     C_1   0.136718 0.996270 0.554430 0.274114
C6    C     C_1   0.136361 0.979709 0.457399 0.134686
C7    C     C_1   0.868751 0.970604 0.452164 0.223408
C8    C     C_1   0.373574 0.424639 0.051072 0.201700
C9    C     C_1   0.636622 0.496255 0.054374 0.274550
C10   C     C_1   0.636216 0.479930 0.957369 0.131281
C11   C     C_1   0.368662 0.470819 0.952095 0.223558
C12   C     C_3   0.991381 0.790662 0.520234 0.159349
C13   C     C_R   0.194556 0.193635 0.757294 -0.405857
C14   C     C_3   0.070125 0.862718 0.610422 -0.177143
C15   C     C_3   0.136124 0.833589 0.462958 -0.294259
C16   C     C_3   0.958406 0.853000 0.395987 -0.207989
C17   C     C_3   0.491154 0.290721 0.019973 0.159788
C18   C     C_3   0.569930 0.362726 0.110070 -0.178796
C19   C     C_3   0.636083 0.333817 0.962750 -0.291459
C20   C     C_3   0.458367 0.353099 0.895887 -0.207187
C21   C     C_3   0.867094 0.097872 0.539373 -0.216446
C22   C     C_3   0.046118 0.165076 0.587016 -0.216340
C23   C     C_3   0.103843 0.144885 0.472072 -0.216668
C24   C     C_R   0.800274 0.197328 0.764969 -0.398253
C25   C     C_3   0.930688 0.176028 0.441035 -0.201729
C26   C     C_3   0.367052 0.598014 0.039343 -0.216346
C27   C     C_3   0.546100 0.665068 0.087054 -0.216102
C28   C     C_3   0.603766 0.645070 0.972084 -0.217234
C29   C     C_3   0.430667 0.676204 0.941006 -0.201942
C30   C     C_3   0.133651 0.677219 0.844384 -0.162193
C31   C     C_3   0.873618 0.712342 0.851069 -0.196922
C32   C     C_3   0.877526 0.673323 0.159693 -0.213921
C33   C     C_3   0.110005 0.663652 0.181109 -0.159943
C34   C     C_3   0.633580 0.177138 0.344348 -0.162194
C35   C     C_R   0.307266 0.699553 0.742873 -0.399969
C36   C     C_3   0.373662 0.212194 0.351029 -0.196364
C37   C     C_3   0.377385 0.173459 0.659590 -0.213535
C38   C     C_3   0.609963 0.163603 0.681150 -0.160046
C39   C     C_3   0.785013 0.143211 0.354833 -0.224495
C40   C     C_3   0.285190 0.095366 0.317744 -0.285349
C41   C     C_3   0.229862 0.135775 0.645656 -0.287905
C42   C     C_3   0.699892 0.065075 0.753763 -0.412079
C43   C     C_3   0.285086 0.643302 0.854838 -0.224556
C44   C     C_3   0.784895 0.595645 0.818039 -0.283216
C45   C     C_3   0.730176 0.635380 0.145762 -0.288211
C46   C     C_R   0.691411 0.705287 0.749094 -0.396571
C47   C     C_3   0.199865 0.565135 0.253775 -0.412197
C48   C     C_3   0.921232 0.239014 0.161386 0.076722
C49   C     C_3   0.083915 0.243524 0.160374 -0.109307
C50   C     C_3   0.075987 0.243773 0.835763 0.097196
C51   C     C_3   0.915758 0.247781 0.836645 -0.140425
C52   C     C_3   0.421284 0.739001 0.661385 0.077536
C53   C     C_3   0.583972 0.743641 0.660453 -0.109760
C54   C     C_3   0.576006 0.743766 0.335745 0.092999
C55   C     C_3   0.415761 0.747771 0.336658 -0.140359
C56   C     C_3   0.240960 0.951163 0.672124 0.016835
C57   C     C_R   0.694604 0.693559 0.257326 -0.406004
C58   C     C_3   0.754117 0.951789 0.670040 0.040715
C59   C     C_3   0.760185 0.923828 0.335857 0.000934
C60   C     C_3   0.219125 0.954104 0.347161 -0.070711
C61   C     C_3   0.740878 0.450503 0.171748 0.016754
C62   C     C_3   0.254026 0.451694 0.170113 0.038995
C63   C     C_3   0.260234 0.423844 0.835899 0.000796
C64   C     C_3   0.720275 0.452696 0.843497 -0.017612
C65   C     C_3   0.015532 0.818788 0.879226 0.019201
C66   C     C_3   0.995323 0.817609 0.118661 0.045400
C67   C     C_3   0.515537 0.318784 0.379219 0.019326
C68   C     C_R   0.300292 0.697352 0.264965 -0.398167
C69   C     C_3   0.495324 0.317605 0.618674 0.045397
C70   C     C_1   0.958234 0.120908 0.048454 0.227772
C71   C     C_1   0.984319 0.122690 0.950859 0.263906
C72   C     C_1   0.458205 0.620895 0.548461 0.227837
C73   C     C_1   0.484314 0.622686 0.450863 0.263777
C74   C     C_R   0.811216 0.263471 0.208699 0.352635
C75   C     C_R   0.189119 0.265963 0.212803 0.377073
C76   C     C_R   0.190519 0.255536 0.791560 0.370234
C77   C     C_R   0.139246 0.139283 0.752061 0.903463
C78   C     C_R   0.802351 0.264643 0.798191 0.352023
C79   C     C_R   0.311240 0.763515 0.708697 0.352785
C80   C     C_R   0.689126 0.766103 0.712860 0.376926
C81   C     C_R   0.690542 0.755489 0.291564 0.370960
C82   C     C_R   0.302380 0.764696 0.298195 0.351503
C83   C     C_R   0.260352 0.823706 0.715527 0.414179
C84   C     C_R   0.739750 0.824253 0.716336 0.393298
C85   C     C_R   0.745641 0.805935 0.292090 0.389046
C86   C     C_R   0.245470 0.819058 0.297327 0.441601
C87   C     C_R   0.760320 0.323635 0.215538 0.413501
C88   C     C_R   0.139425 0.142078 0.249368 0.916687
C89   C     C_R   0.239708 0.324153 0.216290 0.393301
C90   C     C_R   0.245627 0.305982 0.792090 0.389325
C91   C     C_R   0.745650 0.319063 0.797447 0.441689
C92   C     C_R   0.201997 0.810299 0.749990 -0.386681
C93   C     C_R   0.795964 0.816624 0.753186 -0.396680
C94   C     C_R   0.802464 0.800901 0.254765 -0.398404
C95   C     C_R   0.191242 0.804709 0.260141 -0.418198
C96   C     C_R   0.701972 0.310224 0.249987 -0.385937
C97   C     C_R   0.295966 0.316560 0.253146 -0.396618
C98   C     C_R   0.302433 0.300959 0.754747 -0.398568
C99   C     C_R   0.860768 0.140041 0.247494 0.885881
C100  C     C_R   0.691209 0.304719 0.760199 -0.417879
C101  C     C_R   0.000468 0.908087 0.968660 0.415300
C102  C     C_R   0.997303 0.908062 0.030342 0.402313
C103  C     C_R   0.500468 0.408081 0.468661 0.415227
C104  C     C_R   0.497302 0.408055 0.530346 0.402283
C105  C     C_R   0.991940 0.984190 0.053991 -0.244655
C106  C     C_R   0.996725 0.984438 0.946382 -0.252598
C107  C     C_R   0.491935 0.484185 0.553992 -0.244659
C108  C     C_R   0.496723 0.484435 0.446384 -0.252611
C109  C     C_R   0.981198 0.050165 0.026418 -0.103480
C110  C     C_R   0.358911 0.640359 0.253758 0.894063
C111  C     C_R   0.987768 0.050396 0.974905 -0.116687
C112  C     C_R   0.481186 0.550160 0.526420 -0.103553
C113  C     C_R   0.487759 0.550392 0.474908 -0.116558
C114  C     C_R   0.141041 0.861786 0.750966 0.897455
C115  C     C_R   0.858500 0.863042 0.751360 0.928163
C116  C     C_R   0.860049 0.858508 0.250903 0.889320
C117  C     C_R   0.137923 0.860061 0.251766 0.926707
C118  C     C_R   0.641037 0.361766 0.250962 0.897986
C119  C     C_R   0.358495 0.363028 0.251353 0.927950
C120  C     C_R   0.360044 0.358522 0.750898 0.889389
C121  C     C_R   0.639257 0.639264 0.252070 0.904032
C122  C     C_R   0.637912 0.360051 0.751777 0.926324
C123  C     C_R   0.999991 0.997149 0.890965 0.872712
C124  C     C_R   0.998190 0.996975 0.109176 0.874390
C125  C     C_R   0.499991 0.497148 0.390966 0.872753
C126  C     C_R   0.498190 0.496974 0.609176 0.874317
C127  C     C_R   0.998912 0.997211 0.609967 0.931807
C128  C     C_R   0.001102 0.997159 0.391330 0.953402
C129  C     C_R   0.498897 0.497232 0.109946 0.931068
C130  C     C_R   0.501089 0.497251 0.891314 0.954762
C131  C     C_3   0.943104 0.927877 0.528131 0.319326
C132  C     C_R   0.639414 0.642110 0.749386 0.916429
C133  C     C_3   0.073535 0.954595 0.538255 0.391834
C134  C     C_3   0.072360 0.948680 0.476306 0.343644
C135  C     C_3   0.938356 0.939918 0.467558 0.336336
C136  C     C_3   0.442980 0.427990 0.028016 0.319396
C137  C     C_3   0.573418 0.454693 0.038111 0.391511
C138  C     C_3   0.572280 0.448864 0.976156 0.345157
C139  C     C_3   0.438256 0.440087 0.967463 0.336551
C140  C     C_3   0.993256 0.072474 0.532469 0.678321
C141  C     C_3   0.996345 0.071938 0.471280 0.696631
C142  C     C_3   0.493197 0.572573 0.032435 0.678515
C143  C     C_R   0.360772 0.640053 0.747495 0.885934
C144  C     C_3   0.496293 0.572087 0.971241 0.696613
C145  C     C_3   0.998304 0.988608 0.553168 -0.416930
C146  C     C_3   0.002867 0.989492 0.450904 -0.351151
C147  C     C_3   0.498219 0.488684 0.053103 -0.416946
C148  C     C_3   0.502797 0.489647 0.950848 -0.351613
C149  C     C_R   0.198896 0.745968 0.780966 0.385903
C150  C     C_R   0.794162 0.762327 0.790874 0.383177
C151  C     C_R   0.804784 0.738323 0.221256 0.391605
C152  C     C_R   0.186151 0.737346 0.232795 0.378038
C153  C     C_R   0.698849 0.245891 0.280949 0.385750
C154  C     C_R   0.807241 0.199504 0.242868 -0.399621
C155  C     C_R   0.294221 0.262202 0.290804 0.383144
C156  C     C_R   0.304702 0.238441 0.721195 0.391873
C157  C     C_R   0.686118 0.237310 0.732823 0.378425
C158  C     C_R   0.752280 0.192816 0.277851 0.358251
C159  C     C_R   0.244667 0.205808 0.287452 0.380578
C160  C     C_R   0.252985 0.183847 0.724947 0.376673
C161  C     C_R   0.736705 0.181695 0.740510 0.395128
C162  C     C_R   0.252319 0.692888 0.777862 0.358220
C163  C     C_R   0.744575 0.705960 0.787552 0.380459
C164  C     C_R   0.753088 0.683692 0.225030 0.376884
H1    H     H_    0.048264 0.785825 0.520911 0.185672
H2    H     H_    0.014733 0.858694 0.387718 0.176724
H3    H     H_    0.055166 0.258093 0.195461 0.143945
H4    H     H_    0.083634 0.186548 0.142948 0.205287
H5    H     H_    0.056974 0.275496 0.130547 0.148208
H6    H     H_    0.092532 0.189886 0.852218 0.198302
H7    H     H_    0.042646 0.252899 0.801555 0.125546
H8    H     H_    0.051970 0.214718 0.869672 0.013251
H9    H     H_    0.938476 0.258283 0.798712 0.167060
H10   H     H_    0.909573 0.192332 0.854463 0.219596
H11   H     H_    0.949623 0.275561 0.864035 0.166976
H12   H     H_    0.406225 0.683516 0.646221 0.214906
H13   H     H_    0.924779 0.880048 0.367783 0.163116
H14   H     H_    0.448474 0.753429 0.697233 0.138132
H15   H     H_    0.463321 0.725074 0.638170 0.021738
H16   H     H_    0.555183 0.758113 0.695542 0.144230
H17   H     H_    0.583885 0.686688 0.642998 0.205227
H18   H     H_    0.556962 0.775545 0.630623 0.148406
H19   H     H_    0.592483 0.689883 0.352219 0.197099
H20   H     H_    0.542642 0.752912 0.301553 0.126242
H21   H     H_    0.551911 0.716779 0.369729 0.017624
H22   H     H_    0.438475 0.758283 0.298725 0.167311
H23   H     H_    0.409595 0.692312 0.354470 0.219369
H24   H     H_    0.947629 0.795031 0.389125 0.147009
H25   H     H_    0.449616 0.775559 0.364046 0.166950
H26   H     H_    0.223070 0.993567 0.699363 0.250835
H27   H     H_    0.201522 0.928701 0.645681 0.152974
H28   H     H_    0.272610 0.985318 0.647645 0.132089
H29   H     H_    0.711954 0.981498 0.651435 0.109338
H30   H     H_    0.763737 0.979992 0.704664 0.184097
H31   H     H_    0.796264 0.968449 0.642245 0.169736
H32   H     H_    0.747476 0.949952 0.298237 0.169024
H33   H     H_    0.813280 0.926656 0.354738 0.204629
H34   H     H_    0.729855 0.958084 0.362091 0.134577
H35   H     H_    0.548034 0.285898 0.020542 0.185777
H36   H     H_    0.253434 0.976013 0.377295 0.146998
H37   H     H_    0.206172 0.992744 0.315902 0.223537
H38   H     H_    0.172877 0.939255 0.370857 0.204069
H39   H     H_    0.722612 0.493436 0.198465 0.251438
H40   H     H_    0.701668 0.427296 0.145477 0.151497
H41   H     H_    0.772513 0.484355 0.147072 0.131165
H42   H     H_    0.211742 0.481375 0.151656 0.109647
H43   H     H_    0.263646 0.479877 0.204760 0.184175
H44   H     H_    0.295745 0.468063 0.142243 0.170251
H45   H     H_    0.247515 0.450007 0.798294 0.169023
H46   H     H_    0.467110 0.270155 0.984929 0.163124
H47   H     H_    0.313343 0.426644 0.854763 0.204670
H48   H     H_    0.229920 0.458090 0.862147 0.134597
H49   H     H_    0.759568 0.476123 0.874101 0.134628
H50   H     H_    0.704801 0.492338 0.815014 0.211360
H51   H     H_    0.672448 0.448672 0.871929 0.189973
H52   H     H_    0.064145 0.839238 0.862525 0.221397
H53   H     H_    0.966554 0.828140 0.856823 0.224422
H54   H     H_    0.021957 0.761878 0.875610 0.079836
H55   H     H_    0.946260 0.836073 0.137289 0.214251
H56   H     H_    0.044976 0.827239 0.139690 0.221703
H57   H     H_    0.479824 0.245025 0.045667 0.045527
H58   H     H_    0.991149 0.759625 0.121744 0.087032
H59   H     H_    0.564149 0.339239 0.362519 0.221345
H60   H     H_    0.466557 0.328119 0.356816 0.224387
H61   H     H_    0.521974 0.261872 0.375605 0.079916
H62   H     H_    0.446263 0.336069 0.637303 0.214317
H63   H     H_    0.544974 0.327239 0.639704 0.221646
H64   H     H_    0.491165 0.259621 0.621758 0.086988
H65   H     H_    0.513676 0.366799 0.119705 0.169165
H66   H     H_    0.600640 0.386672 0.140200 0.178165
H67   H     H_    0.584337 0.304760 0.113696 0.130939
H68   H     H_    0.663296 0.336549 0.999965 0.215122
H69   H     H_    0.967459 0.770123 0.485142 0.163565
H70   H     H_    0.672034 0.351072 0.932816 0.188948
H71   H     H_    0.624918 0.275808 0.954633 0.151668
H72   H     H_    0.514700 0.358773 0.887640 0.177590
H73   H     H_    0.424797 0.380075 0.867618 0.163095
H74   H     H_    0.447601 0.295119 0.889061 0.146642
H75   H     H_    0.862545 0.044557 0.524962 0.123945
H76   H     H_    0.842325 0.135974 0.511822 0.194624
H77   H     H_    0.836230 0.101544 0.574261 0.179087
H78   H     H_    0.017416 0.149452 0.621411 0.185088
H79   H     H_    0.019997 0.212268 0.567785 0.173746
H80   H     H_    0.979947 0.744968 0.545903 0.045512
H81   H     H_    0.098666 0.182993 0.598717 0.130995
H82   H     H_    0.137808 0.106345 0.492904 0.206974
H83   H     H_    0.083753 0.190950 0.494954 0.177185
H84   H     H_    0.138171 0.170137 0.444232 0.192107
H85   H     H_    0.956724 0.186320 0.404469 0.180606
H86   H     H_    0.955032 0.208622 0.471771 0.180644
H87   H     H_    0.875606 0.194942 0.436933 0.124805
H88   H     H_    0.362489 0.544706 0.024926 0.123886
H89   H     H_    0.342293 0.636127 0.011794 0.194638
H90   H     H_    0.336189 0.601684 0.074231 0.179200
H91   H     H_    0.013896 0.866945 0.620071 0.168500
H92   H     H_    0.517306 0.649427 0.121403 0.185099
H93   H     H_    0.520075 0.712334 0.067843 0.173649
H94   H     H_    0.598661 0.682854 0.098839 0.131223
H95   H     H_    0.637724 0.606572 0.992954 0.207431
H96   H     H_    0.583617 0.691110 0.994962 0.177230
H97   H     H_    0.638110 0.670345 0.944265 0.192199
H98   H     H_    0.456712 0.686499 0.904444 0.180613
H99   H     H_    0.455012 0.708782 0.971750 0.180727
H100  H     H_    0.375590 0.695133 0.936904 0.124848
H101  H     H_    0.161877 0.681707 0.881005 0.157510
H102  H     H_    0.100967 0.886540 0.640523 0.178717
H103  H     H_    0.137616 0.624653 0.823601 0.200841
H104  H     H_    0.079961 0.673249 0.856376 0.116158
H105  H     H_    0.902857 0.685963 0.819608 0.123277
H106  H     H_    0.843098 0.678272 0.876829 0.207372
H107  H     H_    0.914300 0.729620 0.877304 0.150911
H108  H     H_    0.864375 0.672626 0.118430 0.166124
H109  H     H_    0.866658 0.621968 0.179366 0.207270
H110  H     H_    0.934430 0.672412 0.162038 0.131139
H111  H     H_    0.096296 0.630220 0.214080 0.153182
H112  H     H_    0.145133 0.636174 0.153396 0.203899
H113  H     H_    0.084267 0.804662 0.613985 0.130616
H114  H     H_    0.059716 0.671412 0.161095 0.123478
H115  H     H_    0.661791 0.181639 0.380975 0.157480
H116  H     H_    0.637566 0.124568 0.323572 0.200921
H117  H     H_    0.579881 0.173167 0.356327 0.116276
H118  H     H_    0.402994 0.185864 0.319600 0.123376
H119  H     H_    0.343108 0.178082 0.376743 0.207866
H120  H     H_    0.414299 0.229493 0.377301 0.150860
H121  H     H_    0.364250 0.172793 0.618324 0.166175
H122  H     H_    0.366482 0.122089 0.679234 0.206958
H123  H     H_    0.434287 0.172510 0.661954 0.131044
H124  H     H_    0.163299 0.836367 0.500184 0.216018
H125  H     H_    0.596275 0.130168 0.714124 0.153216
H126  H     H_    0.645082 0.136130 0.653429 0.203883
H127  H     H_    0.559664 0.171356 0.661147 0.123539
H128  H     H_    0.768912 0.194803 0.373419 0.115167
H129  H     H_    0.842264 0.147873 0.351955 0.181983
H130  H     H_    0.774233 0.096521 0.379863 0.195600
H131  H     H_    0.337571 0.104328 0.303667 0.105827
H132  H     H_    0.267502 0.064317 0.284436 0.166807
H133  H     H_    0.294514 0.069086 0.354747 0.176268
H134  H     H_    0.222905 0.194463 0.636332 0.150190
H135  H     H_    0.172109 0.850730 0.433056 0.185149
H136  H     H_    0.179763 0.108906 0.639337 0.227082
H137  H     H_    0.265975 0.110922 0.617942 0.174364
H138  H     H_    0.660000 0.090861 0.778472 0.153041
H139  H     H_    0.742253 0.040899 0.777746 0.181423
H140  H     H_    0.671751 0.020756 0.733750 0.171256
H141  H     H_    0.268997 0.694898 0.873425 0.115161
H142  H     H_    0.342335 0.647950 0.851939 0.181989
H143  H     H_    0.274308 0.596622 0.879873 0.195771
H144  H     H_    0.837378 0.604310 0.804170 0.103955
H145  H     H_    0.767208 0.564664 0.784617 0.165622
H146  H     H_    0.124947 0.775577 0.454871 0.152210
H147  H     H_    0.795548 0.570011 0.855353 0.170526
H148  H     H_    0.723338 0.694045 0.136334 0.150408
H149  H     H_    0.680039 0.608608 0.139406 0.226830
H150  H     H_    0.766315 0.610356 0.118133 0.174164
H151  H     H_    0.159975 0.590953 0.278472 0.152926
H152  H     H_    0.242210 0.540955 0.277771 0.181380
H153  H     H_    0.171705 0.520823 0.233774 0.171242
H154  H     H_    0.906205 0.183517 0.146219 0.215035
H155  H     H_    0.948430 0.253455 0.197230 0.138272
H156  H     H_    0.963238 0.225552 0.138160 0.022066
N1    N     N_1   0.820273 0.910930 0.569986 -0.170011
N2    N     N_1   0.980664 0.179713 0.932592 -0.237629
N3    N     N_1   0.438142 0.678103 0.560255 -0.221984
N4    N     N_1   0.480690 0.679708 0.432589 -0.238289
N5    N     N_1   0.186693 0.027341 0.564606 -0.274552
N6    N     N_1   0.190928 0.001902 0.448851 -0.248729
N7    N     N_1   0.813989 0.993298 0.441182 -0.248913
N8    N     N_1   0.320165 0.411090 0.069900 -0.170252
N9    N     N_1   0.686608 0.527269 0.064621 -0.274632
N10   N     N_1   0.691008 0.502513 0.949067 -0.248104
N11   N     N_1   0.313902 0.493545 0.941141 -0.249202
N12   N     N_1   0.938188 0.178128 0.060237 -0.222114
O1    O     O_3   0.000000 1.000000 0.749970 -0.501839
O2    O     O_R   0.646190 0.585480 0.219360 -0.627363
O3    O     O_3   0.748336 0.378781 0.835655 -0.580221
O4    O     O_3   0.007288 0.840293 0.934429 -0.604273
O5    O     O_3   0.000400 0.839824 0.063650 -0.606258
O6    O     O_3   0.507288 0.340290 0.434423 -0.604277
O7    O     O_3   0.500402 0.339821 0.563662 -0.606240
O8    O     O_R   0.646190 0.585480 0.780640 -0.630686
O9    O     O_R   0.353810 0.585480 0.780640 -0.581082
O10   O     O_R   0.146170 0.914530 0.719320 -0.720674
O11   O     O_R   0.853830 0.914530 0.719320 -0.677856
O12   O     O_R   0.853830 0.914530 0.280680 -0.709967
O13   O     O_R   0.146170 0.914530 0.280680 -0.693452
O14   O     O_R   0.646170 0.414530 0.219320 -0.719922
O15   O     O_R   0.353830 0.414530 0.219320 -0.677828
O16   O     O_R   0.353830 0.414530 0.780680 -0.710006
O17   O     O_3   0.000000 0.000000 0.250030 -0.503091
O18   O     O_R   0.646170 0.414530 0.780680 -0.697126
O19   O     O_R   0.085450 0.146180 0.780600 -0.722294
O20   O     O_R   0.914550 0.146180 0.780600 -0.715162
O21   O     O_R   0.914550 0.146180 0.219400 -0.727509
O22   O     O_R   0.085450 0.146180 0.219400 -0.699783
O23   O     O_R   0.585450 0.646180 0.280600 -0.722074
O24   O     O_R   0.414550 0.646180 0.280600 -0.715256
O25   O     O_R   0.414550 0.646180 0.719400 -0.727537
O26   O     O_R   0.585450 0.646180 0.719400 -0.699605
O27   O     O_R   0.914560 0.853830 0.780620 -0.647015
O28   O     O_3   0.500000 0.500000 0.249970 -0.501861
O29   O     O_R   0.085440 0.853830 0.780620 -0.637636
O30   O     O_R   0.085440 0.853830 0.219380 -0.633895
O31   O     O_R   0.914560 0.853830 0.219380 -0.634344
O32   O     O_R   0.414560 0.353830 0.280620 -0.646925
O33   O     O_R   0.585440 0.353830 0.280620 -0.637824
O34   O     O_R   0.585440 0.353830 0.719380 -0.633466
O35   O     O_R   0.414560 0.353830 0.719380 -0.634345
O36   O     O_R   0.000000 0.060730 0.866830 -0.664601
O37   O     O_R   0.000000 0.060730 0.133170 -0.672738
O38   O     O_R   0.500000 0.560730 0.366830 -0.664676
O39   O     O_3   0.500000 0.500000 0.750030 -0.502856
O40   O     O_R   0.500000 0.560730 0.633170 -0.672640
O41   O     O_R   0.939250 0.000010 0.633130 -0.663617
O42   O     O_R   0.060750 0.000010 0.633130 -0.671491
O43   O     O_R   0.060750 0.000010 0.366870 -0.654839
O44   O     O_R   0.939250 0.000010 0.366870 -0.661500
O45   O     O_R   0.439250 0.500010 0.133130 -0.663271
O46   O     O_R   0.560750 0.500010 0.133130 -0.671670
O47   O     O_R   0.560750 0.500010 0.866870 -0.658099
O48   O     O_R   0.439250 0.500010 0.866870 -0.661534
O49   O     O_R   0.000000 0.939270 0.866820 -0.685835
O50   O     O_R   0.853810 0.085480 0.719360 -0.594367
O51   O     O_R   0.000000 0.939270 0.133180 -0.691006
O52   O     O_R   0.500000 0.439270 0.366820 -0.685821
O53   O     O_R   0.500000 0.439270 0.633180 -0.691012
O54   O     O_3   0.963529 0.854912 0.544531 -0.592135
O55   O     O_3   0.089475 0.884195 0.560280 -0.614417
O56   O     O_3   0.071894 0.874003 0.461270 -0.585562
O57   O     O_3   0.938126 0.868656 0.446442 -0.586107
O58   O     O_3   0.463295 0.354947 0.044307 -0.592085
O59   O     O_3   0.589247 0.384205 0.059946 -0.614339
O60   O     O_3   0.571836 0.374210 0.961116 -0.585588
O61   O     O_R   0.146190 0.085480 0.719360 -0.627582
O62   O     O_3   0.437973 0.368839 0.946309 -0.586291
O63   O     O_3   0.935635 0.116979 0.550618 -0.623701
O64   O     O_3   0.054127 0.104870 0.553641 -0.683362
O65   O     O_3   0.050476 0.110030 0.445415 -0.635105
O66   O     O_3   0.931764 0.100194 0.451497 -0.643352
O67   O     O_3   0.435597 0.617098 0.050590 -0.623706
O68   O     O_3   0.554081 0.604919 0.053626 -0.683427
O69   O     O_3   0.550449 0.610170 0.945397 -0.635355
O70   O     O_3   0.431723 0.600369 0.951456 -0.643439
O71   O     O_3   0.141315 0.740318 0.813671 -0.608795
O72   O     O_R   0.146190 0.085480 0.280640 -0.628020
O73   O     O_3   0.834282 0.773883 0.834676 -0.575709
O74   O     O_3   0.853157 0.739988 0.181647 -0.599789
O75   O     O_3   0.134358 0.733319 0.194822 -0.594916
O76   O     O_3   0.641245 0.240232 0.313630 -0.608839
O77   O     O_3   0.334343 0.273737 0.334612 -0.575952
O78   O     O_3   0.353034 0.240124 0.681560 -0.599781
O79   O     O_3   0.634313 0.233273 0.694857 -0.595051
O80   O     O_3   0.749417 0.131286 0.308100 -0.604578
O81   O     O_3   0.241553 0.157167 0.326993 -0.564366
O82   O     O_3   0.256733 0.121623 0.694951 -0.621003
O83   O     O_R   0.853810 0.085480 0.280640 -0.581128
O84   O     O_3   0.727883 0.113912 0.718039 -0.598556
O85   O     O_3   0.249462 0.631369 0.808119 -0.604602
O86   O     O_3   0.741347 0.657477 0.827186 -0.563547
O87   O     O_3   0.756907 0.621366 0.195123 -0.620031
O88   O     O_3   0.227886 0.613937 0.218042 -0.598370
O89   O     O_3   0.853099 0.270285 0.163518 -0.599251
O90   O     O_3   0.152479 0.267749 0.165680 -0.564099
O91   O     O_3   0.140668 0.275390 0.829963 -0.579056
O92   O     O_3   0.852326 0.284214 0.835129 -0.583147
O93   O     O_3   0.353162 0.770325 0.663526 -0.598751
O94   O     O_R   0.353810 0.585480 0.219360 -0.594098
O95   O     O_3   0.652420 0.768106 0.665784 -0.564335
O96   O     O_3   0.640667 0.775394 0.329941 -0.578407
O97   O     O_3   0.352311 0.784217 0.335161 -0.582914
O98   O     O_3   0.282365 0.895918 0.699309 -0.592523
O99   O     O_3   0.737170 0.875392 0.673972 -0.559294
O100  O     O_3   0.740303 0.850992 0.335997 -0.572104
O101  O     O_3   0.248030 0.880204 0.335125 -0.578244
O102  O     O_3   0.782285 0.395964 0.199604 -0.591923
O103  O     O_3   0.236945 0.375343 0.173983 -0.559754
O104  O     O_3   0.240319 0.351014 0.836012 -0.572107
Zn1   Zn    Zn3+2 0.086750 0.999990 0.706190 0.890829
Zn2   Zn    Zn3+2 0.000000 0.086770 0.206250 0.892130
Zn3   Zn    Zn3+2 0.500000 0.586770 0.293750 0.886797
Zn4   Zn    Zn3+2 0.500000 0.586770 0.706250 0.892014
Zn5   Zn    Zn3+2 0.000000 0.913230 0.793740 0.921673
Zn6   Zn    Zn3+2 0.000000 0.913230 0.206260 0.922382
Zn7   Zn    Zn3+2 0.500000 0.413230 0.293740 0.921802
Zn8   Zn    Zn3+2 0.500000 0.413230 0.706260 0.922481
Zn9   Zn    Zn3+2 0.913250 0.999990 0.706190 0.931885
Zn10  Zn    Zn3+2 0.913250 0.999990 0.293810 0.921392
Zn11  Zn    Zn3+2 0.086750 0.999990 0.293810 0.927919
Zn12  Zn    Zn3+2 0.586750 0.499990 0.206190 0.891259
Zn13  Zn    Zn3+2 0.413250 0.499990 0.206190 0.932114
Zn14  Zn    Zn3+2 0.413250 0.499990 0.793810 0.921536
Zn15  Zn    Zn3+2 0.586750 0.499990 0.793810 0.926079
Zn16  Zn    Zn3+2 0.000000 0.086770 0.793750 0.886836

loop_
_geom_bond_atom_site_label_1
_geom_bond_atom_site_label_2
_ccdc_geom_bond_type
C72   C112  S    
C127  O41   A    
C107  C112  A    
O32   Zn7   S    
C48   H154  S    
C121  O23   A    
C63   H48   S    
C66   H58   S    
C134  O56   S    
C27   O68   S    
C119  O15   A    
C150  C163  A    
C110  O94   A    
C154  C158  A    
O9    Zn14  S    
C128  O44   A    
C137  O59   S    
C58   H31   S    
C122  O18   A    
O29   Zn5   S    
C23   H84   S    
C25   H85   S    
C24   C161  A    
C2    C159  A    
C20   H72   S    
C52   O93   S    
C50   H7    S    
C91   C100  A    
C114  O10   A    
C13   C160  A    
C33   H114  S    
C56   H27   S    
C15   H135  S    
C16   H24   S    
C43   H143  S    
C93   C150  A    
C99   O21   A    
C62   H44   S    
C22   H79   S    
C75   O90   S    
O17   Zn11  S    
C134  C146  S    
C98   C156  A    
C53   O95   S    
O39   Zn15  S    
O18   Zn15  S    
O2    Zn12  S    
C140  C141  S    
C17   H46   S    
C18   H66   S    
C83   O98   S    
C37   H121  S    
C17   O58   S    
C129  O46   A    
C47   H151  S    
C88   O22   A    
C108  C113  A    
C118  O14   A    
C66   H55   S    
O44   Zn10  S    
C41   H134  S    
O37   Zn2   S    
C143  O9    A    
C28   H95   S    
C39   H130  S    
O13   Zn11  S    
C68   C110  S    
C67   H59   S    
C67   O6    S    
C3    O88   S    
C60   H38   S    
C33   H112  S    
C31   O73   S    
C142  C144  S    
C123  O49   A    
C133  C145  S    
C48   H156  S    
C22   O64   S    
C12   H1    S    
C76   O91   S    
C21   H77   S    
O42   Zn1   S    
C20   O62   S    
O28   Zn7   S    
C5    N5    T    
C140  C145  S    
C155  O77   S    
C125  O52   A    
C98   C120  S    
C101  O4    S    
C131  O54   S    
C58   H29   S    
C160  O82   S    
C23   H82   S    
C65   H53   S    
O39   Zn8   S    
C25   H87   S    
C51   O92   S    
C9    N9    T    
C20   H74   S    
C16   O57   S    
C38   H127  S    
C138  O60   S    
C17   H35   S    
C84   C93   A    
C129  C147  S    
C17   H57   S    
C86   C95   A    
C60   H36   S    
C144  O70   S    
C92   C149  A    
C54   H19   S    
C43   H141  S    
C95   C152  A    
C59   H34   S    
C62   H42   S    
C104  C107  A    
C2    C75   A    
C49   H5    S    
C127  C145  S    
C69   O7    S    
C130  O48   A    
C51   H10   S    
O1    Zn5   S    
C115  O27   A    
C82   O97   S    
C157  O79   S    
C69   H62   S    
C37   H123  S    
C158  O80   S    
C150  O73   S    
C18   O59   S    
C95   C117  S    
C156  O78   S    
C122  O34   A    
C55   H25   S    
C103  O6    S    
O1    Zn16  S    
O43   Zn11  S    
C53   H17   S    
C109  C111  A    
C46   C132  S    
C41   H136  S    
C163  O86   S    
C28   H97   S    
O28   Zn12  S    
C99   C154  S    
O51   Zn6   S    
C74   C154  A    
C153  C158  A    
C6    N6    T    
C100  C157  A    
C138  C148  S    
C12   H80   S    
C54   H21   S    
C47   H153  S    
O28   Zn13  S    
C74   C87   A    
C27   H92   S    
C14   O55   S    
C79   O93   S    
C140  O63   S    
C141  O66   S    
C87   O102  S    
C10   N10   T    
C1    O20   A    
C151  O74   S    
C106  C111  A    
C12   H69   S    
C56   H26   S    
C139  C148  S    
C155  C159  A    
C64   H49   S    
C156  C160  A    
O30   Zn6   S    
C49   H4    S    
C123  O36   A    
C50   O91   S    
C142  O67   S    
C80   O95   S    
C38   H125  S    
C97   C119  S    
O50   Zn9   S    
C40   O81   S    
C31   H106  S    
C29   H98   S    
C30   H101  S    
C45   H149  S    
C28   O69   S    
C26   H88   S    
C21   H75   S    
C114  O29   A    
C46   C163  A    
C7    N7    T    
C4    N1    T    
C40   H132  S    
C120  O35   A    
C69   H64   S    
C103  C104  A    
C81   O96   S    
C101  C106  A    
C105  C109  A    
C47   H152  S    
C142  C147  S    
C45   H148  S    
C63   H47   S    
C26   H89   S    
O94   Zn13  S    
C30   H103  S    
C56   O98   S    
C10   C138  S    
O11   Zn9   S    
C116  O12   A    
C162  O85   S    
O26   Zn4   S    
C52   H15   S    
C65   O4    S    
C53   H18   S    
C143  O25   A    
C46   C80   A    
C128  C146  S    
O72   Zn11  S    
C153  O76   S    
C35   C79   A    
C77   O19   A    
C36   O77   S    
C131  C145  S    
C23   H83   S    
C75   C89   A    
C42   H139  S    
O28   Zn3   S    
C1    C24   S    
C151  C164  A    
O48   Zn14  S    
C50   H8    S    
C126  O53   A    
C19   O60   S    
C81   C85   A    
C61   H41   S    
C34   H115  S    
C56   H28   S    
C101  C102  A    
C8    C136  S    
C64   H51   S    
C3    C68   A    
C44   H147  S    
C80   C84   A    
C140  O64   S    
O39   Zn4   S    
O14   Zn12  S    
O17   Zn10  S    
C3    C152  A    
C117  O30   A    
C40   H133  S    
O16   Zn14  S    
C18   H67   S    
C61   H40   S    
O15   Zn13  S    
C129  O45   A    
O61   Zn1   S    
C67   H61   S    
O8    Zn15  S    
C29   H100  S    
C73   C113  S    
C102  C105  A    
C55   H22   S    
C11   C139  S    
C66   H56   S    
C32   H109  S    
C9    C137  S    
C28   H96   S    
C39   H129  S    
O1    Zn1   S    
C152  O75   S    
C19   H68   S    
C52   H12   S    
O23   Zn3   S    
C39   O80   S    
C72   N3    T    
C45   O87   S    
C115  O11   A    
C127  O42   A    
O83   Zn10  S    
C63   H45   S    
C136  C139  S    
C27   H93   S    
C44   H145  S    
C89   O103  S    
C36   H119  S    
C94   C116  S    
C110  O24   A    
C33   H111  S    
C94   C151  A    
C82   C86   A    
C128  O43   A    
C58   H30   S    
C105  C124  S    
C149  C162  A    
C5    C133  S    
C102  O5    S    
C117  O13   A    
C68   C82   A    
C25   H86   S    
C25   O66   S    
C15   H124  S    
C50   H6    S    
C51   H11   S    
O25   Zn4   S    
C12   O54   S    
C141  C146  S    
C14   H113  S    
C24   C78   A    
O39   Zn14  S    
C31   H107  S    
C133  C134  S    
C54   H20   S    
C32   H108  S    
C30   H104  S    
C26   O67   S    
C157  C161  A    
C62   H43   S    
C22   H78   S    
C73   N4    T    
C64   H50   S    
C27   H94   S    
C55   O97   S    
C39   H128  S    
C137  C147  S    
C15   O56   S    
C18   H65   S    
C19   H71   S    
C37   H122  S    
O46   Zn12  S    
C59   H32   S    
C84   O99   S    
C44   H144  S    
C36   H118  S    
C79   C83   A    
O40   Zn4   S    
C118  O33   A    
C139  O62   S    
C135  O57   S    
C97   C155  A    
C126  O40   A    
C67   H60   S    
C52   H14   S    
C15   H146  S    
C60   H37   S    
C61   O102  S    
C1    O50   A    
C59   O100  S    
C33   O75   S    
C34   H117  S    
C29   O70   S    
C34   O76   S    
C48   H155  S    
O38   Zn3   S    
C35   C143  S    
C164  O87   S    
C43   O85   S    
O19   Zn16  S    
C141  O65   S    
O52   Zn7   S    
O27   Zn5   S    
C161  O84   S    
C144  C148  S    
C88   O72   A    
O21   Zn2   S    
C42   H140  S    
O33   Zn7   S    
O12   Zn10  S    
C83   C92   A    
O31   Zn6   S    
O34   Zn8   S    
O35   Zn8   S    
C124  O51   A    
C47   O88   S    
C96   C118  S    
C49   H3    S    
C131  C135  S    
C65   H54   S    
C64   O3    S    
C142  O68   S    
C21   O63   S    
C136  O58   S    
C20   H73   S    
C38   H126  S    
O49   Zn5   S    
C93   C115  S    
C51   H9    S    
O24   Zn3   S    
O36   Zn16  S    
C70   N12   T    
C104  O7    S    
C37   O78   S    
C42   O84   S    
C14   H91   S    
C96   C153  A    
C16   H2    S    
C144  O69   S    
C71   C111  S    
C106  C123  S    
C31   H105  S    
O10   Zn1   S    
C43   H142  S    
C2    C88   S    
C103  C108  A    
C55   H23   S    
C108  C125  S    
C78   O92   S    
C120  O16   A    
O17   Zn6   S    
C135  C146  S    
C49   O90   S    
C11   N11   T    
C130  O47   A    
O47   Zn15  S    
C159  O81   S    
C69   H63   S    
O45   Zn13  S    
C112  C113  A    
C4    C131  S    
C13   C77   S    
C35   C162  A    
C130  C148  S    
C41   O82   S    
C32   O74   S    
C36   H120  S    
C65   H52   S    
C26   H90   S    
C41   H137  S    
C23   O65   S    
C19   H70   S    
C74   O89   S    
C89   C97   A    
C132  O26   A    
O22   Zn2   S    
C91   O3    S    
C7    C135  S    
C70   C109  S    
C99   O83   A    
C85   C94   A    
C58   O99   S    
C13   C76   A    
C87   C96   A    
C30   O71   S    
O41   Zn9   S    
C121  O2    A    
C77   O61   A    
C57   C81   A    
C53   H16   S    
C119  O32   A    
C133  O55   S    
C85   O100  S    
C16   H13   S    
C116  O31   A    
C76   C90   A    
C42   H138  S    
C34   H116  S    
C71   N2    T    
C124  O37   A    
C48   O89   S    
C107  C126  S    
C22   H81   S    
C78   C91   A    
C137  C138  S    
C132  O8    A    
O1    Zn9   S    
C60   O101  S    
C125  O38   A    
C6    C134  S    
C61   H39   S    
C57   C164  A    
C44   O86   S    
C38   O79   S    
C59   H33   S    
C149  O71   S    
C29   H99   S    
C100  C122  S    
C90   O104  S    
C45   H150  S    
C8    N8    T    
C136  C147  S    
C32   H110  S    
C57   C121  S    
C54   O96   S    
O20   Zn16  S    
C21   H76   S    
O53   Zn8   S    
C62   O103  S    
C40   H131  S    
O17   Zn2   S    
C92   C114  S    
C90   C98   A    
C86   O101  S    
C63   O104  S    
C14   H102  S    
C66   O5    S    
