data_mof_unit_3949.cif
_audit_creation_date              2012-12-11T15:22:44-0500
_audit_creation_method            fapswitch 2.2
_symmetry_space_group_name_H-M    P1
_symmetry_Int_Tables_number       1
_space_group_crystal_system       triclinic
_cell_length_a                    22.370826
_cell_length_b                    13.018664
_cell_length_c                    27.034053
_cell_angle_alpha                 89.787354
_cell_angle_beta                  90.508059
_cell_angle_gamma                 90.119243
_cell_volume                      7872.9704738

loop_
_atom_site_label
_atom_site_type_symbol
_atom_type_description
_atom_site_fract_x
_atom_site_fract_y
_atom_site_fract_z
_atom_type_partial_charge
C1    C     C_R   0.720813 0.345322 0.178165 0.566780
C2    C     C_R   0.485993 0.257727 0.896111 0.082235
C3    C     C_R   0.997715 0.581439 0.552960 -0.120919
C4    C     C_R   0.565500 0.095318 0.406690 -0.122203
C5    C     C_R   0.483616 0.076640 0.602647 -0.123780
C6    C     C_R   0.065479 0.595273 0.406689 -0.122567
C7    C     C_R   0.983610 0.576636 0.602649 -0.123524
C8    C     C_R   0.736815 0.973600 0.376074 0.009231
C9    C     C_R   0.261918 0.971587 0.624460 0.016327
C10   C     C_R   0.236813 0.473604 0.376075 0.008895
C11   C     C_R   0.761908 0.471563 0.624465 0.016078
C12   C     C_R   0.702834 0.890454 0.393383 -0.193842
C13   C     C_R   0.026492 0.762912 0.101644 0.079626
C14   C     C_R   0.296186 0.888985 0.607513 -0.180087
C15   C     C_R   0.202833 0.390457 0.393385 -0.194017
C16   C     C_R   0.796188 0.388974 0.607518 -0.180516
C17   C     C_R   0.700753 0.868813 0.443739 -0.148749
C18   C     C_R   0.297144 0.865545 0.557400 -0.140097
C19   C     C_R   0.200750 0.368819 0.443741 -0.148759
C20   C     C_R   0.797139 0.365523 0.557406 -0.140032
C21   C     C_R   0.730791 0.932436 0.477259 0.032980
C22   C     C_R   0.265224 0.926265 0.523687 0.039126
C23   C     C_R   0.230785 0.432445 0.477261 0.032978
C24   C     C_R   0.996175 0.754169 0.893406 0.093171
C25   C     C_R   0.765201 0.426216 0.523694 0.039141
C26   C     C_R   0.762939 0.019099 0.460674 0.237572
C27   C     C_R   0.231648 0.011221 0.539857 0.244688
C28   C     C_R   0.262934 0.519108 0.460676 0.237605
C29   C     C_R   0.731609 0.511153 0.539865 0.244680
C30   C     C_R   0.768059 0.036922 0.410094 0.133403
C31   C     C_R   0.228641 0.031887 0.590297 0.137304
C32   C     C_R   0.268055 0.536930 0.410096 0.133324
C33   C     C_R   0.728610 0.531833 0.590303 0.137661
C34   C     C_R   0.796561 0.875307 0.543442 -0.133205
C35   C     C_R   0.507977 0.262526 0.052648 0.038036
C36   C     C_R   0.203351 0.859299 0.457153 -0.134588
C37   C     C_R   0.296554 0.375305 0.543442 -0.133214
C38   C     C_R   0.703352 0.359202 0.457156 -0.134759
C39   C     C_R   0.721058 0.346670 0.321666 0.543543
C40   C     C_R   0.279028 0.346785 0.678332 0.545539
C41   C     C_R   0.221059 0.846671 0.321665 0.543898
C42   C     C_R   0.779029 0.846782 0.678331 0.545924
C43   C     C_R   0.809711 0.864516 0.593012 -0.133063
C44   C     C_R   0.190726 0.849709 0.407406 -0.133154
C45   C     C_R   0.309707 0.364512 0.593011 -0.133270
C46   C     C_R   0.496040 0.259968 0.947979 0.022297
C47   C     C_R   0.690729 0.349625 0.407407 -0.133102
C48   C     C_R   0.705401 0.893322 0.613109 -0.130713
C49   C     C_R   0.292386 0.900838 0.387573 -0.135056
C50   C     C_R   0.205401 0.393348 0.613114 -0.130529
C51   C     C_R   0.792371 0.400863 0.387579 -0.134988
C52   C     C_R   0.692124 0.907309 0.562876 0.099170
C53   C     C_R   0.304891 0.913807 0.438041 0.096590
C54   C     C_R   0.192122 0.407336 0.562881 0.099242
C55   C     C_R   0.804872 0.413820 0.438049 0.096620
C56   C     C_R   0.738391 0.899470 0.528264 0.066104
C57   C     C_R   0.016463 0.762957 0.049932 0.020068
C58   C     C_R   0.259645 0.893705 0.472575 0.064132
C59   C     C_R   0.238385 0.399481 0.528267 0.066112
C60   C     C_R   0.759634 0.393658 0.472581 0.064093
C61   C     C_R   0.764460 0.874505 0.627997 0.010931
C62   C     C_R   0.234782 0.871648 0.372482 0.009745
C63   C     C_R   0.264459 0.374513 0.627999 0.010735
C64   C     C_R   0.734776 0.371627 0.372486 0.010022
C65   C     C_R   0.555364 0.158334 0.321979 0.528761
C66   C     C_R   0.445560 0.158808 0.678319 0.537207
C67   C     C_R   0.055369 0.658333 0.321981 0.531141
C68   C     C_R   0.003263 0.757818 0.945540 0.044799
C69   C     C_R   0.945564 0.658808 0.678322 0.534851
C70   C     C_R   0.730824 0.006042 0.324404 0.566728
C71   C     C_R   0.269040 0.006127 0.675675 0.562616
C72   C     C_R   0.230824 0.506042 0.324404 0.566290
C73   C     C_R   0.769038 0.506122 0.675677 0.560110
C74   C     C_R   0.506778 0.075483 0.104995 -0.136595
C75   C     C_R   0.477593 0.071268 0.900022 -0.150760
C76   C     C_R   0.004968 0.579372 0.104582 -0.142808
C77   C     C_R   0.974205 0.570980 0.899964 -0.143827
C78   C     C_R   0.497575 0.075319 0.054092 0.005381
C79   C     C_R   0.500088 0.168504 0.027403 0.041135
C80   C     C_R   0.486137 0.072743 0.950945 0.005265
C81   C     C_R   0.995294 0.578495 0.053698 0.004997
C82   C     C_R   0.982894 0.573331 0.950732 0.003222
C83   C     C_R   0.483859 0.980828 0.977973 -0.127001
C84   C     C_R   0.489305 0.982154 0.029220 -0.134635
C85   C     C_R   0.975676 0.483384 0.978697 -0.126043
C86   C     C_R   0.981564 0.486050 0.029880 -0.134596
C87   C     C_R   0.494275 0.167223 0.975383 0.044372
C88   C     C_R   0.002439 0.669769 0.025947 0.045863
C89   C     C_R   0.278517 0.346765 0.820920 0.573912
C90   C     C_R   0.996059 0.667190 0.974036 0.039747
C91   C     C_R   0.511811 0.353877 0.024796 -0.131496
C92   C     C_R   0.505850 0.352642 0.973408 -0.145527
C93   C     C_R   0.022456 0.853001 0.021345 -0.149672
C94   C     C_R   0.016074 0.850404 0.970056 -0.126640
C95   C     C_R   0.726125 0.007938 0.120507 0.093720
C96   C     C_R   0.258731 0.951948 0.869490 0.099100
C97   C     C_R   0.226137 0.507752 0.120545 0.092289
C98   C     C_R   0.757994 0.447156 0.868301 0.047875
C99   C     C_R   0.779300 0.027354 0.093729 0.189256
C100  C     C_R   0.220906 0.845355 0.178304 0.565786
C101  C     C_R   0.203826 0.965740 0.894213 0.190252
C102  C     C_R   0.279899 0.524235 0.094115 0.186955
C103  C     C_R   0.702269 0.455364 0.892765 0.190222
C104  C     C_R   0.780079 0.010629 0.042545 -0.130222
C105  C     C_R   0.200624 0.945243 0.945081 -0.134385
C106  C     C_R   0.280834 0.507359 0.042951 -0.132724
C107  C     C_R   0.699745 0.439818 0.943782 -0.074117
C108  C     C_R   0.729343 0.974838 0.017447 -0.024713
C109  C     C_R   0.251174 0.912678 0.971593 -0.023966
C110  C     C_R   0.229693 0.474270 0.017557 -0.025057
C111  C     C_R   0.778494 0.846780 0.820900 0.578766
C112  C     C_R   0.750866 0.411602 0.970863 -0.042039
C113  C     C_R   0.677494 0.953051 0.043850 -0.126770
C114  C     C_R   0.303587 0.889623 0.946204 -0.133162
C115  C     C_R   0.177235 0.455293 0.043605 -0.128231
C116  C     C_R   0.803670 0.389983 0.945678 -0.132699
C117  C     C_R   0.552354 0.157938 0.178120 0.546286
C118  C     C_R   0.446234 0.157221 0.822700 0.566153
C119  C     C_R   0.053559 0.658150 0.177484 0.565462
C120  C     C_R   0.947150 0.657058 0.822119 0.540773
C121  C     C_R   0.675494 0.967661 0.095172 0.193350
C122  C     C_R   0.473733 0.162935 0.872632 0.033758
C123  C     C_R   0.307591 0.906550 0.895170 0.190818
C124  C     C_R   0.174994 0.470336 0.094889 0.190011
C125  C     C_R   0.807475 0.405017 0.894471 0.205747
C126  C     C_R   0.709452 0.859504 0.946091 -0.131649
C127  C     C_R   0.278784 0.823109 0.050055 -0.136180
C128  C     C_R   0.208879 0.360225 0.945904 -0.133658
C129  C     C_R   0.780415 0.325740 0.050093 -0.134307
C130  C     C_R   0.720944 0.829592 0.897890 -0.174586
C131  C     C_R   0.274294 0.811658 0.100854 -0.184393
C132  C     C_R   0.220288 0.330450 0.897658 -0.177377
C133  C     C_R   0.520411 0.166731 0.130020 0.008787
C134  C     C_R   0.775947 0.314851 0.100990 -0.185440
C135  C     C_R   0.776083 0.988256 0.883579 0.245697
C136  C     C_R   0.212145 0.964351 0.105314 0.233639
C137  C     C_R   0.277077 0.487642 0.883922 0.239546
C138  C     C_R   0.709684 0.462369 0.104413 0.255513
C139  C     C_R   0.763596 0.018320 0.932268 -0.106103
C140  C     C_R   0.218185 0.976793 0.053937 -0.112037
C141  C     C_R   0.264748 0.517481 0.932658 -0.109407
C142  C     C_R   0.715654 0.474297 0.052952 -0.105795
C143  C     C_R   0.732583 0.952211 0.964208 0.011678
C144  C     C_R   0.976299 0.661323 0.871367 0.006065
C145  C     C_R   0.249415 0.904060 0.025932 0.015472
C146  C     C_R   0.232927 0.451987 0.964312 0.011828
C147  C     C_R   0.749010 0.403783 0.025362 0.009916
C148  C     C_R   0.756453 0.891140 0.867102 0.063303
C149  C     C_R   0.238669 0.878523 0.128538 0.060678
C150  C     C_R   0.256552 0.391270 0.867128 0.062725
C151  C     C_R   0.738329 0.379107 0.128258 0.060703
C152  C     C_R   0.538071 0.164380 0.373815 0.023549
C153  C     C_R   0.473682 0.166895 0.629505 0.021792
C154  C     C_R   0.038077 0.664378 0.373819 0.023071
C155  C     C_R   0.024623 0.668710 0.128334 0.041743
C156  C     C_R   0.973692 0.666892 0.629510 0.021992
C157  C     C_R   0.502096 0.243346 0.392177 -0.136007
C158  C     C_R   0.481692 0.262607 0.606182 -0.135459
C159  C     C_R   0.002134 0.743384 0.392188 -0.135498
C160  C     C_R   0.981723 0.762604 0.606192 -0.135269
C161  C     C_R   0.491424 0.249388 0.443093 -0.116709
C162  C     C_R   0.497162 0.267417 0.556205 -0.123536
C163  C     C_R   0.991466 0.749424 0.443104 -0.116877
C164  C     C_R   0.997198 0.767414 0.556216 -0.123294
C165  C     C_R   0.721383 0.037930 0.173427 0.596818
C166  C     C_R   0.513817 0.262342 0.104925 0.093146
C167  C     C_R   0.268419 0.000878 0.820584 0.593511
C168  C     C_R   0.221391 0.537917 0.173429 0.594040
C169  C     C_R   0.768112 0.499584 0.820158 0.555812
C170  C     C_R   0.518273 0.178362 0.475801 0.026679
C171  C     C_R   0.504390 0.176585 0.529043 0.033707
C172  C     C_R   0.018289 0.678358 0.475807 0.026686
C173  C     C_R   0.004407 0.676581 0.529049 0.033697
C174  C     C_R   0.556541 0.103320 0.456966 -0.132054
C175  C     C_R   0.497719 0.081444 0.552957 -0.120946
C176  C     C_R   0.056527 0.603274 0.456965 -0.131901
Cr1   Cr    Cr6+3 0.756570 0.170940 0.251190 1.057218
Cr2   Cr    Cr6+3 0.374010 0.036240 0.749520 1.060394
Cr3   Cr    Cr6+3 0.125990 0.536240 0.250480 1.057649
Cr4   Cr    Cr6+3 0.874010 0.536240 0.749520 1.063160
Cr5   Cr    Cr6+3 0.243430 0.170940 0.748810 1.059024
Cr6   Cr    Cr6+3 0.256570 0.670940 0.251190 1.054515
Cr7   Cr    Cr6+3 0.743430 0.670940 0.748810 1.045506
Cr8   Cr    Cr6+3 0.623740 0.299110 0.249580 1.055787
Cr9   Cr    Cr6+3 0.376260 0.299110 0.750420 1.064441
Cr10  Cr    Cr6+3 0.123740 0.799110 0.249580 1.062790
Cr11  Cr    Cr6+3 0.876260 0.799110 0.750420 1.061278
Cr12  Cr    Cr6+3 0.625990 0.036240 0.250480 1.058605
H1    H     H_    0.469527 0.997936 0.882291 0.160525
H2    H     H_    0.473907 0.333421 0.625980 0.128362
H3    H     H_    0.496309 0.344514 0.167092 0.239417
H4    H     H_    0.052830 0.867489 0.873613 0.228074
H5    H     H_    0.014475 0.823668 0.826801 0.245183
H6    H     H_    0.080227 0.887150 0.112238 0.252315
H7    H     H_    0.005944 0.908981 0.121457 0.230556
H8    H     H_    0.862846 0.071497 0.093795 0.312248
H9    H     H_    0.120951 0.011866 0.891803 0.311250
H10   H     H_    0.364208 0.563875 0.094693 0.311229
H11   H     H_    0.652261 0.454750 0.834146 0.338458
H12   H     H_    0.982054 0.799066 0.367289 0.122006
H13   H     H_    0.973950 0.833419 0.625993 0.128265
H14   H     H_    0.501501 0.009954 0.532885 0.122922
H15   H     H_    0.579659 0.050088 0.481096 0.146904
H16   H     H_    0.001480 0.509950 0.532886 0.122936
H17   H     H_    0.079626 0.550007 0.481090 0.146961
H18   H     H_    0.477232 0.001552 0.619186 0.137994
H19   H     H_    0.595760 0.036658 0.393629 0.144068
H20   H     H_    0.977210 0.501547 0.619184 0.138051
H21   H     H_    0.507485 0.002797 0.124670 0.154044
H22   H     H_    0.095716 0.536579 0.393624 0.144098
H23   H     H_    0.461555 0.307986 0.456689 0.111194
H24   H     H_    0.502719 0.341753 0.538733 0.112638
H25   H     H_    0.961620 0.808055 0.456705 0.111375
H26   H     H_    0.002772 0.841750 0.538749 0.112745
H27   H     H_    0.677930 0.842334 0.367869 0.141425
H28   H     H_    0.322521 0.843047 0.633079 0.139314
H29   H     H_    0.177932 0.342334 0.367870 0.141448
H30   H     H_    0.822538 0.343058 0.633082 0.138954
H31   H     H_    0.832335 0.869105 0.516817 0.131646
H32   H     H_    0.961589 0.498507 0.883281 0.168320
H33   H     H_    0.168334 0.844427 0.483734 0.135931
H34   H     H_    0.332326 0.369092 0.516815 0.131534
H35   H     H_    0.668340 0.344285 0.483736 0.135823
H36   H     H_    0.855086 0.845520 0.603955 0.138220
H37   H     H_    0.146755 0.822898 0.396169 0.145182
H38   H     H_    0.355080 0.345503 0.603953 0.137965
H39   H     H_    0.646767 0.322779 0.396168 0.145421
H40   H     H_    0.477262 0.907890 0.959490 0.099929
H41   H     H_    0.487704 0.910103 0.049383 0.101810
H42   H     H_    0.965101 0.410970 0.960989 0.096150
H43   H     H_    0.001375 0.508066 0.125217 0.146113
H44   H     H_    0.976219 0.415477 0.050788 0.104021
H45   H     H_    0.676746 0.801556 0.456548 0.165253
H46   H     H_    0.322237 0.799602 0.544885 0.162222
H47   H     H_    0.176744 0.301562 0.456550 0.165319
H48   H     H_    0.822246 0.299595 0.544891 0.162240
H49   H     H_    0.670117 0.897326 0.640239 0.118450
H50   H     H_    0.326920 0.914341 0.360446 0.117028
H51   H     H_    0.170118 0.397364 0.640245 0.118570
H52   H     H_    0.826899 0.414415 0.360453 0.117225
H53   H     H_    0.508647 0.425296 0.954021 0.120943
H54   H     H_    0.638243 0.924824 0.024402 0.108209
H55   H     H_    0.520516 0.427134 0.042220 0.133585
H56   H     H_    0.020648 0.921997 0.949953 0.132141
H57   H     H_    0.032771 0.926323 0.038082 0.106092
H58   H     H_    0.685708 0.806886 0.970072 0.120739
H59   H     H_    0.303040 0.765630 0.029520 0.113831
H60   H     H_    0.184446 0.308190 0.969704 0.117320
H61   H     H_    0.806345 0.269819 0.029987 0.113263
H62   H     H_    0.705518 0.754665 0.885916 0.157224
H63   H     H_    0.295307 0.745618 0.117912 0.180257
H64   H     H_    0.204155 0.256121 0.885451 0.155175
H65   H     H_    0.342607 0.862795 0.966376 0.099272
H66   H     H_    0.798740 0.251101 0.118486 0.181071
H67   H     H_    0.821027 0.023672 0.022335 0.103338
H68   H     H_    0.158921 0.957381 0.964270 0.098088
H69   H     H_    0.322148 0.518289 0.022964 0.100171
H70   H     H_    0.657382 0.449802 0.962276 0.141627
H71   H     H_    0.779848 0.091588 0.945804 0.091811
H72   H     H_    0.197566 0.042133 0.035717 0.089317
H73   H     H_    0.281727 0.590053 0.946461 0.091184
H74   H     H_    0.693340 0.537496 0.034342 0.088681
H75   H     H_    0.818389 0.115778 0.869555 0.326693
H76   H     H_    0.137689 0.429136 0.023884 0.107911
H77   H     H_    0.163727 0.087770 0.110944 0.317810
H78   H     H_    0.320742 0.614059 0.870397 0.325550
H79   H     H_    0.658118 0.582182 0.109190 0.320022
H80   H     H_    0.595572 0.908347 0.098444 0.309026
H81   H     H_    0.388790 0.851813 0.893802 0.306401
H82   H     H_    0.093541 0.417260 0.097519 0.310881
H83   H     H_    0.888755 0.350828 0.893361 0.303713
H84   H     H_    0.604350 0.872720 0.559000 0.232187
H85   H     H_    0.619901 0.998964 0.565537 0.228932
H86   H     H_    0.394570 0.898815 0.441455 0.234294
H87   H     H_    0.843109 0.365848 0.966066 0.098489
H88   H     H_    0.370083 0.021231 0.437197 0.235455
H89   H     H_    0.104343 0.372774 0.559011 0.232253
H90   H     H_    0.119908 0.499014 0.565543 0.228977
H91   H     H_    0.894558 0.398928 0.441457 0.234382
H92   H     H_    0.870023 0.521317 0.437217 0.235633
H93   H     H_    0.772750 0.081653 0.525824 0.331667
H94   H     H_    0.216976 0.068944 0.473914 0.333259
H95   H     H_    0.272746 0.581661 0.525826 0.331737
H96   H     H_    0.716906 0.568850 0.473920 0.333287
H97   H     H_    0.847046 0.112455 0.406034 0.250850
H98   H     H_    0.481995 0.298995 0.367273 0.119754
H99   H     H_    0.786369 0.189011 0.410148 0.263151
H100  H     H_    0.149843 0.107409 0.595097 0.251557
H101  H     H_    0.210554 0.183952 0.588538 0.261259
H102  H     H_    0.347037 0.612476 0.406037 0.250539
H103  H     H_    0.286355 0.689021 0.410148 0.263252
H104  H     H_    0.649799 0.607312 0.595111 0.250987
H105  H     H_    0.710494 0.683889 0.588539 0.261558
H106  H     H_    0.453511 0.399909 0.880634 0.245030
H107  H     H_    0.528273 0.385582 0.871086 0.253194
H108  H     H_    0.480650 0.405236 0.116544 0.214697
N1    N     N_3   0.632601 0.931902 0.547288 -0.657581
N2    N     N_3   0.513650 0.357857 0.131889 -0.572176
N3    N     N_3   0.009692 0.843660 0.863879 -0.595427
N4    N     N_3   0.040855 0.856778 0.126907 -0.579378
N5    N     N_3   0.362299 0.950150 0.454113 -0.627366
N6    N     N_3   0.132599 0.431945 0.547295 -0.657544
N7    N     N_3   0.862267 0.450217 0.454123 -0.627250
N8    N     N_3   0.803052 0.122782 0.393642 -0.565137
N9    N     N_3   0.194253 0.118379 0.606288 -0.566934
N10   N     N_3   0.303043 0.622794 0.393643 -0.565394
N11   N     N_3   0.694209 0.618310 0.606294 -0.567024
N12   N     N_3   0.486405 0.350548 0.867272 -0.596195
O1    O     O_R   0.769900 0.064540 0.196060 -0.453998
O2    O     O_R   0.433710 0.069580 0.694600 -0.520286
O3    O     O_R   0.066290 0.569580 0.305400 -0.519904
O4    O     O_R   0.933710 0.569580 0.694600 -0.520373
O5    O     O_R   0.680760 0.993330 0.302620 -0.512883
O6    O     O_R   0.319240 0.993330 0.697380 -0.510836
O7    O     O_R   0.180760 0.493330 0.302620 -0.512771
O8    O     O_R   0.819240 0.493330 0.697380 -0.510450
O9    O     O_3   0.668770 0.168760 0.250420 -0.289996
O10   O     O_3   0.331230 0.168760 0.749580 -0.275950
O11   O     O_3   0.168770 0.668760 0.250420 -0.293104
O12   O     O_R   0.230100 0.064540 0.803940 -0.466018
O13   O     O_3   0.831230 0.668760 0.749580 -0.266374
O14   O     O_R   0.750800 0.274080 0.199250 -0.537590
O15   O     O_R   0.249200 0.274080 0.800750 -0.524480
O16   O     O_R   0.250800 0.774080 0.199250 -0.537184
O17   O     O_R   0.749200 0.774080 0.800750 -0.521935
O18   O     O_R   0.669990 0.371670 0.194150 -0.432791
O19   O     O_R   0.330010 0.371670 0.805850 -0.448609
O20   O     O_R   0.169990 0.871670 0.194150 -0.444228
O21   O     O_R   0.830010 0.871670 0.805850 -0.440601
O22   O     O_R   0.574600 0.238480 0.197800 -0.488330
O23   O     O_R   0.269900 0.564540 0.196060 -0.455591
O24   O     O_R   0.425400 0.238480 0.802200 -0.463078
O25   O     O_R   0.074600 0.738480 0.197800 -0.465772
O26   O     O_R   0.925400 0.738480 0.802200 -0.487426
O27   O     O_R   0.566130 0.068680 0.194240 -0.484691
O28   O     O_R   0.433870 0.068680 0.805760 -0.506603
O29   O     O_R   0.066130 0.568680 0.194240 -0.489060
O30   O     O_R   0.933870 0.568680 0.805760 -0.499127
O31   O     O_R   0.680610 0.992490 0.199570 -0.440734
O32   O     O_R   0.319390 0.992490 0.800430 -0.447252
O33   O     O_R   0.180610 0.492490 0.199570 -0.441997
O34   O     O_R   0.730100 0.564540 0.803940 -0.515635
O35   O     O_R   0.819390 0.492490 0.800430 -0.430173
O36   O     O_R   0.770060 0.065440 0.307230 -0.469819
O37   O     O_R   0.229940 0.065440 0.692770 -0.474536
O38   O     O_R   0.270060 0.565440 0.307230 -0.470424
O39   O     O_R   0.729940 0.565440 0.692770 -0.477996
O40   O     O_R   0.750960 0.274920 0.302300 -0.491434
O41   O     O_R   0.249040 0.274920 0.697700 -0.493257
O42   O     O_R   0.250960 0.774920 0.302300 -0.491154
O43   O     O_R   0.749040 0.774920 0.697700 -0.492400
O44   O     O_R   0.670160 0.372580 0.305320 -0.510353
O45   O     O_R   0.574760 0.239320 0.300850 -0.506186
O46   O     O_R   0.329840 0.372580 0.694680 -0.514133
O47   O     O_R   0.170160 0.872580 0.305320 -0.509199
O48   O     O_R   0.829840 0.872580 0.694680 -0.514488
O49   O     O_3   0.808274 0.050972 0.852177 -0.670919
O50   O     O_3   0.179626 0.033100 0.133026 -0.679251
O51   O     O_3   0.310011 0.549802 0.852794 -0.675946
O52   O     O_3   0.675175 0.529127 0.131600 -0.663923
O53   O     O_3   0.624426 0.942913 0.120950 -0.674304
O54   O     O_3   0.359794 0.883884 0.870507 -0.682167
O55   O     O_3   0.123145 0.449082 0.120309 -0.675217
O56   O     O_R   0.425240 0.239320 0.699150 -0.508351
O57   O     O_3   0.859903 0.383071 0.870006 -0.680703
O58   O     O_3   0.791003 0.086960 0.492684 -0.730505
O59   O     O_3   0.200877 0.075628 0.507716 -0.727918
O60   O     O_3   0.290997 0.586970 0.492685 -0.730519
O61   O     O_3   0.700815 0.575531 0.507725 -0.727992
O62   O     O_3   0.830288 0.061169 0.117988 -0.688497
O63   O     O_3   0.154516 0.002325 0.868558 -0.687700
O64   O     O_3   0.331230 0.555566 0.118668 -0.690727
O65   O     O_3   0.649752 0.480261 0.868545 -0.705352
O66   O     O_R   0.074760 0.739320 0.300850 -0.502760
O67   O     O_R   0.925240 0.739320 0.699150 -0.511670
O68   O     O_R   0.566290 0.069580 0.305400 -0.519853

loop_
_geom_bond_atom_site_label_1
_geom_bond_atom_site_label_2
_ccdc_geom_bond_type
C21   C26   A    
C34   C56   A    
C126  H58   S    
C72   O38   A    
C107  C112  A    
C120  C144  S    
C104  C108  A    
C136  C140  A    
C117  C133  S    
C54   N6    S    
Cr7   O34   S    
C79   C87   A    
C48   H49   S    
H90   N6    S    
C135  C139  A    
Cr10  O20   S    
C107  H70   S    
H78   O51   S    
C97   C124  A    
H105  N11   S    
C95   C99   A    
H106  N12   S    
H101  N9    S    
C29   C33   A    
C126  C143  A    
C132  C150  A    
C165  O31   A    
C98   C169  S    
C136  O50   S    
C162  C171  A    
H8    O62   S    
H77   O50   S    
C20   H48   S    
C68   C90   A    
H79   O52   S    
C25   C60   S    
C33   N11   S    
C44   H37   S    
C81   C86   A    
C36   C44   A    
C54   C59   A    
C100  C149  S    
Cr3   O33   S    
H4    N3    S    
H107  N12   S    
C3    H16   S    
C80   C83   A    
Cr9   O24   S    
Cr6   O38   S    
C25   C29   A    
C129  H61   S    
Cr6   O16   S    
H97   N8    S    
C27   C31   A    
C89   O15   A    
C28   C32   A    
C160  H13   S    
C34   H31   S    
Cr4   O8    S    
C17   C21   A    
C108  C113  A    
C19   C23   A    
Cr12  O5    S    
Cr11  O21   S    
C156  C160  A    
C16   C20   A    
C165  O1    A    
C41   O47   A    
C164  C173  A    
C111  O17   A    
C163  C172  A    
C40   C63   S    
C93   H57   S    
C127  C145  A    
C159  H12   S    
C22   C27   A    
C169  O35   A    
C131  C149  A    
H11   O65   S    
C69   O4    A    
C37   C45   A    
C43   C61   A    
H89   N6    S    
C170  C174  A    
C152  C157  A    
C49   C62   A    
C140  H72   S    
C141  H73   S    
C109  C145  S    
C51   C64   A    
C140  C145  A    
C22   C58   S    
C66   C153  S    
C53   C58   A    
C18   H46   S    
C72   O7    A    
C157  H98   S    
C138  C151  A    
C82   C85   A    
C26   O58   S    
C76   C155  A    
C137  O51   S    
C111  C148  S    
Cr9   O19   S    
Cr7   O17   S    
C77   C82   A    
C31   N9    S    
C49   C53   A    
C134  C151  A    
C51   C55   A    
C127  C131  A    
C129  C147  A    
C81   C88   A    
C48   C52   A    
C125  O57   S    
H9    O63   S    
C103  C107  A    
C70   O5    A    
C133  C166  A    
C124  O55   S    
C117  O27   A    
C119  O25   A    
H83   O57   S    
C35   C166  A    
C1    O14   A    
C85   C86   A    
C23   C59   S    
C67   C154  S    
Cr1   O1    S    
C50   H51   S    
C162  H24   S    
Cr3   O3    S    
C158  H2    S    
C120  O30   A    
Cr5   O15   S    
C13   C57   A    
C170  C171  S    
Cr6   O23   S    
C39   O40   A    
C118  C122  S    
C153  C158  A    
C139  C143  A    
C98   C125  A    
C7    C156  A    
C66   O56   A    
C16   H30   S    
C51   H52   S    
H88   N5    S    
C50   C63   A    
C76   H43   S    
C131  H63   S    
C167  O32   A    
C83   H40   S    
C4    C152  A    
Cr12  O31   S    
H102  N10   S    
C69   C156  S    
C102  O64   S    
Cr4   O13   S    
C74   H21   S    
C11   C33   A    
C91   C92   A    
H3    N2    S    
Cr7   O39   S    
Cr1   O40   S    
Cr10  O25   S    
C164  H26   S    
C68   C94   A    
C92   H53   S    
Cr3   O29   S    
C83   C84   A    
C8    C12   A    
C127  H59   S    
H103  N10   S    
C14   H28   S    
C23   C28   A    
Cr11  O48   S    
C37   C59   A    
H104  N11   S    
H93   O58   S    
C38   C60   A    
C114  C123  A    
C109  C114  A    
Cr11  O26   S    
H82   O55   S    
H95   O60   S    
C26   C30   A    
C116  C125  A    
H75   O49   S    
C89   O19   A    
C137  C150  A    
Cr1   O14   S    
C112  C116  A    
C46   C87   A    
C105  C109  A    
C96   C123  A    
H10   O64   S    
C18   C22   A    
H92   N7    S    
C142  C147  A    
C34   C43   A    
C97   C102  A    
C175  H14   S    
Cr12  O9    S    
C118  O28   A    
C97   C168  S    
C8    C70   S    
C105  H68   S    
C112  C147  S    
H99   N8    S    
C86   H44   S    
C111  O21   A    
C53   N5    S    
C154  C159  A    
C128  C146  A    
C103  O65   S    
C110  C115  A    
C35   C79   A    
C121  O53   S    
C108  C143  S    
H85   N1    S    
C115  H76   S    
Cr2   O32   S    
C42   O43   A    
C47   H39   S    
C73   O39   A    
C113  H54   S    
C96   C101  A    
C36   H33   S    
C69   O67   A    
Cr8   O45   S    
C172  C176  A    
Cr2   O28   S    
C167  O12   A    
C75   C122  A    
C71   O37   A    
C136  C149  A    
C66   O2    A    
Cr11  O13   S    
C15   C19   A    
C39   C64   S    
C32   N10   S    
C50   C54   A    
C104  H67   S    
C2    N12   S    
C160  C164  A    
C75   H1    S    
Cr12  O68   S    
C3    C7    A    
C101  O63   S    
C46   C92   A    
C20   C25   A    
C126  C130  A    
C98   C103  A    
Cr9   O56   S    
C135  O49   S    
C5    H18   S    
C139  H71   S    
C12   C17   A    
C106  H69   S    
C15   H29   S    
C1    O18   A    
C95   C121  A    
H108  N2    S    
C99   C104  A    
C65   O45   A    
C4    C174  A    
C55   C60   A    
C169  O34   A    
C5    C175  A    
Cr2   O2    S    
C41   C62   S    
C95   C165  S    
C166  N2    S    
C2    C122  A    
C67   O66   A    
C39   O44   A    
H91   N7    S    
C73   O8    A    
C138  C142  A    
C24   N3    S    
H81   O54   S    
C120  O26   A    
C176  H17   S    
C116  H87   S    
C9    C14   A    
C11   C16   A    
C40   O41   A    
C96   C167  S    
C84   H41   S    
Cr1   O36   S    
C6    C154  A    
C141  C146  A    
H5    N3    S    
H6    N4    S    
C88   C90   A    
C100  O16   A    
C11   C73   S    
Cr8   O22   S    
Cr5   O41   S    
Cr2   O6    S    
H86   N5    S    
C157  C161  A    
C47   C64   A    
Cr3   O11   S    
C4    H19   S    
Cr7   O43   S    
C114  H65   S    
C137  C141  A    
C115  C124  A    
C85   H42   S    
C9    C71   S    
C49   H50   S    
C19   H47   S    
C168  O33   A    
C21   C56   S    
C17   H45   S    
H7    N4    S    
Cr5   O10   S    
C82   C90   A    
C8    C30   A    
C27   O59   S    
Cr4   O30   S    
C163  H25   S    
C55   N7    S    
C24   C144  A    
C1    C151  S    
C45   H38   S    
H100  N9    S    
Cr6   O42   S    
C24   C68   A    
C71   O6    A    
C129  C134  A    
C74   C78   A    
Cr8   O44   S    
Cr11  O67   S    
C142  H74   S    
C12   H27   S    
H94   O59   S    
Cr4   O35   S    
C118  O24   A    
Cr10  O47   S    
C38   H35   S    
C93   C94   A    
C42   O48   A    
C14   C18   A    
C41   O42   A    
C168  O23   A    
C138  O52   S    
C2    C46   A    
C161  H23   S    
C67   O3    A    
Cr9   O46   S    
C37   H34   S    
C80   C87   A    
C36   C58   A    
C10   C15   A    
H80   O53   S    
C119  O29   A    
C74   C133  A    
C94   H56   S    
Cr8   O9    S    
C13   C155  A    
C29   O61   S    
C3    C173  A    
Cr4   O4    S    
Cr12  O27   S    
C123  O54   S    
C75   C80   A    
C70   O36   A    
Cr9   O10   S    
C57   C93   A    
C128  C132  A    
C65   O68   A    
C130  H62   S    
C101  C105  A    
Cr5   O12   S    
Cr6   O11   S    
C130  C148  A    
C128  H60   S    
Cr10  O66   S    
C134  H66   S    
C9    C31   A    
C78   C79   A    
C44   C62   A    
C171  C175  A    
C45   C63   A    
C13   N4    S    
C52   N1    S    
C10   C32   A    
C99   O62   S    
C113  C121  A    
C28   O60   S    
C42   C61   S    
C38   C47   A    
C161  C170  A    
C30   N8    S    
Cr7   O13   S    
C91   H55   S    
C159  C163  A    
C172  C173  S    
C132  H64   S    
C106  C110  A    
C89   C150  S    
C119  C155  S    
C7    H20   S    
C76   C81   A    
C77   H32   S    
C6    H22   S    
C57   C88   A    
C65   C152  S    
C43   H36   S    
C77   C144  A    
C110  C146  S    
C40   O46   A    
C48   C61   A    
C6    C176  A    
C5    C153  A    
C100  O20   A    
C174  H15   S    
C102  C106  A    
Cr8   O18   S    
Cr5   O37   S    
Cr2   O10   S    
Cr3   O7    S    
H96   O61   S    
C158  C162  A    
C117  O22   A    
C78   C84   A    
Cr1   O9    S    
C135  C148  A    
Cr10  O11   S    
H84   N1    S    
C52   C56   A    
C10   C72   S    
C35   C91   A    
