data_mof_unit_2100.cif
_audit_creation_date              2012-12-11T21:34:22-0500
_audit_creation_method            fapswitch 2.2
_symmetry_space_group_name_H-M    P1
_symmetry_Int_Tables_number       1
_space_group_crystal_system       triclinic
_cell_length_a                    23.510034
_cell_length_b                    29.199254
_cell_length_c                    8.301362
_cell_angle_alpha                 90.147197
_cell_angle_beta                  93.080031
_cell_angle_gamma                 89.668203
_cell_volume                      5690.33930063

loop_
_atom_site_label
_atom_site_type_symbol
_atom_type_description
_atom_site_fract_x
_atom_site_fract_y
_atom_site_fract_z
_atom_type_partial_charge
Ba1   Ba    Ba6+2 0.999920 0.467660 0.844980 1.639770
Ba2   Ba    Ba6+2 0.999920 0.532340 0.344980 1.639222
Ba3   Ba    Ba6+2 0.499920 0.967660 0.844980 1.639770
Ba4   Ba    Ba6+2 0.499920 0.032340 0.344980 1.639222
C1    C     C_3   0.067294 0.262871 0.666529 0.321617
C2    C     C_R   0.710927 0.657737 0.301615 -0.046869
C3    C     C_R   0.785648 0.844373 0.886140 -0.102489
C4    C     C_R   0.784894 0.207546 0.506839 -0.089498
C5    C     C_R   0.820806 0.809391 0.946690 -0.076466
C6    C     C_R   0.284894 0.707546 0.506839 -0.089498
C7    C     C_R   0.320806 0.309391 0.946690 -0.076466
C8    C     C_R   0.799268 0.244239 0.407081 -0.003762
C9    C     C_R   0.819603 0.765627 0.874651 -0.005858
C10   C     C_R   0.299268 0.744239 0.407080 -0.003762
C11   C     C_R   0.319603 0.265627 0.874651 -0.005858
C12   C     C_R   0.853215 0.314947 0.365549 -0.086002
C13   C     C_R   0.238622 0.830121 0.744332 -0.020978
C14   C     C_R   0.857121 0.686941 0.860982 -0.094218
C15   C     C_R   0.353215 0.814947 0.365548 -0.086003
C16   C     C_R   0.357121 0.186941 0.860982 -0.094218
C17   C     C_R   0.842711 0.274871 0.457473 0.369932
C18   C     C_R   0.850805 0.729096 0.946293 0.355766
C19   C     C_R   0.342711 0.774871 0.457473 0.369932
C20   C     C_R   0.350805 0.229096 0.946293 0.355766
C21   C     C_R   0.893900 0.348936 0.416778 0.001673
C22   C     C_R   0.895194 0.651348 0.915369 -0.011466
C23   C     C_R   0.393900 0.848936 0.416778 0.001673
C24   C     C_R   0.210926 0.157737 0.301615 -0.046869
C25   C     C_R   0.395194 0.151348 0.915369 -0.011466
C26   C     C_R   0.901738 0.387324 0.317063 -0.305949
C27   C     C_R   0.903746 0.613166 0.814677 -0.300261
C28   C     C_R   0.401738 0.887324 0.317063 -0.305949
C29   C     C_R   0.403746 0.113166 0.814677 -0.300261
C30   C     C_R   0.869459 0.394809 0.171546 0.017356
C31   C     C_R   0.870095 0.605239 0.672276 0.040056
C32   C     C_R   0.369459 0.894809 0.171546 0.017356
C33   C     C_R   0.370095 0.105239 0.672276 0.040056
C34   C     C_3   0.164363 0.470515 0.193297 0.313732
C35   C     C_R   0.203142 0.794121 0.689024 -0.080241
C36   C     C_3   0.164008 0.529116 0.697659 0.315587
C37   C     C_3   0.664363 0.970515 0.193297 0.313732
C38   C     C_3   0.664008 0.029117 0.697659 0.315587
C39   C     C_3   0.217219 0.440136 0.200433 -0.396120
C40   C     C_3   0.217576 0.558079 0.715620 -0.401342
C41   C     C_3   0.717219 0.940136 0.200433 -0.396120
C42   C     C_3   0.717576 0.058080 0.715620 -0.401342
C43   C     C_3   0.837678 0.530138 0.990938 0.275948
C44   C     C_3   0.828690 0.475376 0.457916 0.290589
C45   C     C_3   0.337678 0.030138 0.990937 0.275947
C46   C     C_R   0.180100 0.195137 0.234549 -0.109262
C47   C     C_3   0.328690 0.975376 0.457916 0.290589
C48   C     C_3   0.784436 0.557668 0.942542 -0.379338
C49   C     C_3   0.771312 0.462641 0.377325 -0.344791
C50   C     C_3   0.284436 0.057668 0.942542 -0.379338
C51   C     C_3   0.271312 0.962642 0.377325 -0.344791
C52   C     C_3   0.029372 0.303170 0.608715 0.398696
C53   C     C_3   0.006640 0.711978 0.073088 0.372113
C54   C     C_3   0.529372 0.803170 0.608715 0.398697
C55   C     C_3   0.506640 0.211977 0.073088 0.372114
C56   C     C_R   0.756468 0.289351 0.999572 0.019321
C57   C     C_R   0.703142 0.294121 0.689024 -0.080241
C58   C     C_R   0.751394 0.708454 0.512821 0.016191
C59   C     C_R   0.256468 0.789351 0.999572 0.019321
C60   C     C_R   0.251394 0.208454 0.512821 0.016191
C61   C     C_3   0.060550 0.201364 0.488927 0.144466
C62   C     C_3   0.107168 0.806936 0.086110 0.163871
C63   C     C_3   0.560550 0.701364 0.488927 0.144466
C64   C     C_3   0.607168 0.306937 0.086107 0.163871
C65   C     C_3   0.914111 0.227536 0.549473 0.225565
C66   C     C_3   0.834084 0.731264 0.213028 0.221065
C67   C     C_3   0.414111 0.727536 0.549473 0.225565
C68   C     C_R   0.680100 0.695137 0.234549 -0.109262
C69   C     C_3   0.334084 0.231264 0.213028 0.221066
C70   C     C_2   0.750169 0.367166 0.628262 0.461283
C71   C     C_2   0.699014 0.611461 0.232951 0.469092
C72   C     C_2   0.250169 0.867166 0.628262 0.461284
C73   C     C_2   0.199014 0.111461 0.232951 0.469093
C74   C     C_R   0.193563 0.756207 0.785540 0.016712
C75   C     C_R   0.182810 0.238386 0.306822 -0.013996
C76   C     C_R   0.693563 0.256207 0.785540 0.016712
C77   C     C_3   0.045542 0.749208 0.144723 0.263331
C78   C     C_R   0.682810 0.738386 0.306822 -0.013996
C79   C     C_R   0.220688 0.753335 0.940159 0.020351
C80   C     C_R   0.216885 0.244821 0.449231 0.010795
C81   C     C_R   0.720688 0.253335 0.940159 0.020351
C82   C     C_R   0.716885 0.744821 0.449231 0.010795
C83   C     C_R   0.156982 0.721230 0.728326 -0.059925
C84   C     C_R   0.149274 0.274511 0.242464 -0.115387
C85   C     C_R   0.656982 0.221230 0.728326 -0.059925
C86   C     C_R   0.649274 0.774511 0.242464 -0.115387
C87   C     C_R   0.146443 0.682726 0.823920 -0.014100
C88   C     C_3   0.567294 0.762871 0.666529 0.321617
C89   C     C_R   0.145089 0.316375 0.325715 -0.035408
C90   C     C_R   0.646443 0.182726 0.823920 -0.014099
C91   C     C_R   0.645089 0.816375 0.325715 -0.035408
C92   C     C_R   0.175193 0.678809 0.977653 0.011342
C93   C     C_R   0.178657 0.322868 0.470745 -0.006905
C94   C     C_R   0.675193 0.178809 0.977653 0.011342
C95   C     C_R   0.678657 0.822868 0.470745 -0.006905
C96   C     C_R   0.211548 0.714583 0.035807 0.008811
C97   C     C_R   0.216066 0.287557 0.528409 0.001262
C98   C     C_R   0.711548 0.214583 0.035807 0.008812
C99   C     C_3   0.545542 0.249209 0.144723 0.263331
C100  C     C_R   0.716066 0.787557 0.528409 0.001262
C101  C     C_R   0.107650 0.648200 0.771702 -0.019254
C102  C     C_R   0.106701 0.351270 0.272334 -0.005460
C103  C     C_R   0.607650 0.148200 0.771702 -0.019254
C104  C     C_R   0.606701 0.851270 0.272334 -0.005460
C105  C     C_3   0.977602 0.301729 0.096335 0.367299
C106  C     C_3   0.979847 0.699995 0.595694 0.400710
C107  C     C_3   0.477602 0.801730 0.096335 0.367300
C108  C     C_3   0.479847 0.199995 0.595694 0.400711
C109  C     C_R   0.097892 0.610960 0.872807 -0.289381
C110  C     C_R   0.764306 0.328539 0.903879 -0.023298
C111  C     C_R   0.097697 0.389170 0.372134 -0.301282
C112  C     C_R   0.597892 0.110960 0.872807 -0.289382
C113  C     C_R   0.597697 0.889170 0.372134 -0.301282
C114  C     C_R   0.129321 0.604611 0.019205 0.056049
C115  C     C_R   0.130982 0.396397 0.514896 0.041321
C116  C     C_R   0.629321 0.104611 0.019205 0.056049
C117  C     C_R   0.630982 0.896397 0.514896 0.041321
C118  C     C_R   0.168343 0.639007 0.072982 -0.053175
C119  C     C_R   0.173809 0.363995 0.560969 -0.056337
C120  C     C_R   0.668342 0.139007 0.072982 -0.053175
C121  C     C_R   0.749925 0.665051 0.436440 -0.044127
C122  C     C_R   0.673809 0.863995 0.560969 -0.056337
C123  C     C_R   0.783751 0.286205 0.155392 0.003737
C124  C     C_R   0.787083 0.715609 0.653032 -0.007845
C125  C     C_R   0.283751 0.786205 0.155392 0.003737
C126  C     C_R   0.287083 0.215609 0.653032 -0.007846
C127  C     C_R   0.822071 0.320828 0.213799 -0.019023
C128  C     C_R   0.824335 0.680364 0.712887 -0.040997
C129  C     C_R   0.322071 0.820828 0.213799 -0.019023
C130  C     C_R   0.324335 0.180364 0.712887 -0.040997
C131  C     C_R   0.829430 0.360698 0.118458 -0.015880
C132  C     C_R   0.264306 0.828539 0.903879 -0.023298
C133  C     C_R   0.827958 0.638528 0.624865 -0.016374
C134  C     C_R   0.329430 0.860698 0.118458 -0.015880
C135  C     C_R   0.327958 0.138528 0.624865 -0.016374
C136  C     C_R   0.797137 0.364946 0.970745 -0.044939
C137  C     C_R   0.789154 0.631094 0.491926 -0.067014
C138  C     C_R   0.297137 0.864946 0.970745 -0.044940
C139  C     C_R   0.289154 0.131094 0.491926 -0.067014
C140  C     C_R   0.199658 0.635559 0.221498 -0.045148
C141  C     C_R   0.211390 0.371089 0.696066 -0.060238
C142  C     C_R   0.699658 0.135559 0.221498 -0.045149
C143  C     C_R   0.249925 0.165051 0.436440 -0.044127
C144  C     C_R   0.711390 0.871089 0.696066 -0.060238
C145  C     C_R   0.230117 0.672772 0.285763 0.041222
C146  C     C_R   0.249377 0.336823 0.750137 0.037781
C147  C     C_R   0.730116 0.172772 0.285763 0.041222
C148  C     C_R   0.749377 0.836823 0.750137 0.037781
C149  C     C_R   0.237792 0.712001 0.191384 0.011903
C150  C     C_R   0.250588 0.294278 0.669640 0.024487
C151  C     C_R   0.737792 0.212001 0.191384 0.011903
C152  C     C_R   0.750587 0.794278 0.669640 0.024487
C153  C     C_3   0.949708 0.254944 0.081398 -0.341761
C154  C     C_R   0.738622 0.330121 0.744332 -0.020979
C155  C     C_3   0.954414 0.747982 0.587915 -0.371118
C156  C     C_3   0.449708 0.754944 0.081398 -0.341761
C157  C     C_3   0.454414 0.247982 0.587915 -0.371117
C158  C     C_R   0.773162 0.247861 0.251695 -0.040442
C159  C     C_R   0.786071 0.758478 0.731706 -0.040134
C160  C     C_R   0.273162 0.747861 0.251695 -0.040442
C161  C     C_R   0.286071 0.258478 0.731706 -0.040134
C162  C     C_R   0.252273 0.671485 0.445072 -0.103299
C163  C     C_R   0.285648 0.344373 0.886139 -0.102489
C164  C     C_R   0.752273 0.171485 0.445072 -0.103298
H1    H     H_    0.052376 0.334945 0.644794 0.002882
H2    H     H_    0.207025 0.593414 0.752994 0.050356
H3    H     H_    0.481940 0.271890 0.660841 0.132059
H4    H     H_    0.147589 0.472786 0.314841 0.012053
H5    H     H_    0.145374 0.526110 0.816444 0.012154
H6    H     H_    0.647589 0.972786 0.314841 0.012054
H7    H     H_    0.645374 0.026110 0.816444 0.012154
H8    H     H_    0.132135 0.454911 0.107555 0.070366
H9    H     H_    0.133313 0.546066 0.610318 0.064693
H10   H     H_    0.632135 0.954911 0.107555 0.070366
H11   H     H_    0.633312 0.046066 0.610318 0.064693
H12   H     H_    0.105569 0.189955 0.508170 0.072550
H13   H     H_    0.706111 0.904556 0.231870 0.064505
H14   H     H_    0.055760 0.225803 0.386429 0.024022
H15   H     H_    0.034624 0.170776 0.456321 0.067869
H16   H     H_    0.139602 0.795058 0.179635 0.047498
H17   H     H_    0.079189 0.833608 0.136728 0.044754
H18   H     H_    0.130000 0.823192 0.987947 0.083372
H19   H     H_    0.605569 0.689955 0.508170 0.072550
H20   H     H_    0.555760 0.725803 0.386429 0.024022
H21   H     H_    0.534624 0.670776 0.456321 0.067869
H22   H     H_    0.639601 0.295059 0.179635 0.047499
H23   H     H_    0.579188 0.333609 0.136721 0.044754
H24   H     H_    0.707025 0.093414 0.752994 0.050356
H25   H     H_    0.630000 0.323192 0.987944 0.083372
H26   H     H_    0.944912 0.240057 0.462887 0.051698
H27   H     H_    0.892329 0.197024 0.496099 -0.021896
H28   H     H_    0.937314 0.215408 0.660977 0.139623
H29   H     H_    0.807917 0.700090 0.190421 0.041550
H30   H     H_    0.805912 0.761841 0.215345 0.008914
H31   H     H_    0.855687 0.727999 0.334536 0.077949
H32   H     H_    0.444912 0.740057 0.462887 0.051698
H33   H     H_    0.392329 0.697024 0.496099 -0.021897
H34   H     H_    0.437314 0.715408 0.660977 0.139623
H35   H     H_    0.236357 0.439800 0.081053 0.118871
H36   H     H_    0.307917 0.200091 0.190421 0.041550
H37   H     H_    0.305912 0.261841 0.215345 0.008914
H38   H     H_    0.355687 0.227999 0.334535 0.077949
H39   H     H_    0.784107 0.391432 0.651888 -0.003899
H40   H     H_    0.713834 0.580718 0.294919 -0.017724
H41   H     H_    0.284107 0.891432 0.651888 -0.003900
H42   H     H_    0.213834 0.080718 0.294919 -0.017725
H43   H     H_    0.238316 0.559577 0.598669 0.119046
H44   H     H_    0.736357 0.939800 0.081053 0.118871
H45   H     H_    0.738316 0.059577 0.598669 0.119046
H46   H     H_    0.864622 0.527472 0.886093 0.031570
H47   H     H_    0.859075 0.481137 0.363197 0.029412
H48   H     H_    0.364622 0.027472 0.886093 0.031571
H49   H     H_    0.033523 0.683440 0.030067 -0.046158
H50   H     H_    0.359075 0.981137 0.363197 0.029413
H51   H     H_    0.861399 0.548009 0.091304 0.069040
H52   H     H_    0.844830 0.446904 0.536314 0.021812
H53   H     H_    0.361400 0.048009 0.091304 0.069041
H54   H     H_    0.344830 0.946904 0.536314 0.021812
H55   H     H_    0.766856 0.546422 0.822186 0.136421
H56   H     H_    0.756401 0.490184 0.293032 0.124434
H57   H     H_    0.266856 0.046422 0.822186 0.136422
H58   H     H_    0.256401 0.990184 0.293032 0.124434
H59   H     H_    0.794140 0.594750 0.938807 0.067897
H60   H     H_    0.552376 0.834945 0.644794 0.002882
H61   H     H_    0.774658 0.430138 0.309371 0.101122
H62   H     H_    0.294140 0.094750 0.938807 0.067897
H63   H     H_    0.274658 0.930137 0.309371 0.101122
H64   H     H_    0.751815 0.552008 0.031565 0.161775
H65   H     H_    0.739324 0.458718 0.469812 0.153487
H66   H     H_    0.251815 0.052008 0.031565 0.161775
H67   H     H_    0.239324 0.958718 0.469812 0.153487
H68   H     H_    0.932250 0.413091 0.356987 0.070413
H69   H     H_    0.934803 0.587465 0.853491 0.067900
H70   H     H_    0.432250 0.913091 0.356987 0.070413
H71   H     H_    0.533524 0.183440 0.030068 -0.046156
H72   H     H_    0.434803 0.087465 0.853492 0.067899
H73   H     H_    0.023458 0.301800 0.475531 -0.132266
H74   H     H_    0.980503 0.726827 0.970444 0.015621
H75   H     H_    0.523458 0.801800 0.475531 -0.132267
H76   H     H_    0.480503 0.226826 0.970443 0.015618
H77   H     H_    0.109916 0.265704 0.616617 -0.064460
H78   H     H_    0.076099 0.733268 0.235622 0.064864
H79   H     H_    0.609916 0.765704 0.616617 -0.064460
H80   H     H_    0.576098 0.233268 0.235623 0.064864
H81   H     H_    0.907610 0.255705 0.135383 0.050227
H82   H     H_    0.248932 0.453341 0.292845 0.124519
H83   H     H_    0.911387 0.747971 0.636199 0.057536
H84   H     H_    0.407610 0.755705 0.135383 0.050227
H85   H     H_    0.411387 0.247971 0.636198 0.057536
H86   H     H_    0.183305 0.795190 0.568054 0.116037
H87   H     H_    0.151558 0.190135 0.129055 0.131799
H88   H     H_    0.683305 0.295190 0.568054 0.116037
H89   H     H_    0.651558 0.690135 0.129055 0.131799
H90   H     H_    0.067443 0.585149 0.832735 0.065482
H91   H     H_    0.066255 0.414658 0.333976 0.072723
H92   H     H_    0.567443 0.085149 0.832735 0.065482
H93   H     H_    0.247825 0.542858 0.808218 0.129003
H94   H     H_    0.566255 0.914658 0.333976 0.072723
H95   H     H_    0.136813 0.724632 0.608812 0.094485
H96   H     H_    0.124308 0.268525 0.131566 0.105556
H97   H     H_    0.636813 0.224632 0.608812 0.094485
H98   H     H_    0.624308 0.768525 0.131566 0.105556
H99   H     H_    0.797490 0.396815 0.907067 0.082044
H100  H     H_    0.790621 0.599093 0.428320 0.078585
H101  H     H_    0.297490 0.896815 0.907067 0.082044
H102  H     H_    0.290621 0.099093 0.428320 0.078586
H103  H     H_    0.199497 0.604783 0.292764 0.102864
H104  H     H_    0.748931 0.953341 0.292845 0.124519
H105  H     H_    0.211366 0.402984 0.762259 0.097760
H106  H     H_    0.699497 0.104783 0.292764 0.102864
H107  H     H_    0.711366 0.902984 0.762259 0.097760
H108  H     H_    0.244463 0.642577 0.522034 0.067278
H109  H     H_    0.286414 0.377209 0.947141 0.063444
H110  H     H_    0.744463 0.142577 0.522034 0.067278
H111  H     H_    0.786414 0.877209 0.947141 0.063444
H112  H     H_    0.075360 0.265256 0.798654 0.108555
H113  H     H_    0.018537 0.774804 0.205583 0.045418
H114  H     H_    0.575360 0.765256 0.798654 0.108555
H115  H     H_    0.747825 0.042858 0.808218 0.129003
H116  H     H_    0.518536 0.274805 0.205579 0.045417
H117  H     H_    0.801534 0.205325 0.630860 0.110828
H118  H     H_    0.848500 0.816750 0.051902 0.110754
H119  H     H_    0.301534 0.705325 0.630860 0.110828
H120  H     H_    0.348500 0.316750 0.051902 0.110754
H121  H     H_    0.949702 0.327014 0.030335 0.088714
H122  H     H_    0.950588 0.676421 0.526759 0.079410
H123  H     H_    0.449702 0.827014 0.030335 0.088714
H124  H     H_    0.450588 0.176421 0.526758 0.079411
H125  H     H_    0.981799 0.311094 0.225957 -0.078026
H126  H     H_    0.206111 0.404556 0.231870 0.064505
H127  H     H_    0.983805 0.689216 0.724051 -0.105477
H128  H     H_    0.481799 0.811094 0.225957 -0.078026
H129  H     H_    0.483804 0.189215 0.724050 -0.105477
H130  H     H_    0.943592 0.245173 0.952330 0.162341
H131  H     H_    0.950834 0.760035 0.460983 0.138701
H132  H     H_    0.443592 0.745173 0.952330 0.162341
H133  H     H_    0.450834 0.260035 0.460983 0.138700
H134  H     H_    0.976975 0.228859 0.145408 0.098554
H135  H     H_    0.981940 0.771890 0.660840 0.132060
H136  H     H_    0.476975 0.728859 0.145408 0.098554
O1    O     O_2   0.885810 0.435270 0.885040 -0.461329
O2    O     O_3   0.033071 0.700630 0.526861 -0.595092
O3    O     O_3   0.530968 0.799523 0.028587 -0.610468
O4    O     O_3   0.533071 0.200630 0.526861 -0.595092
O5    O     O_3   0.066460 0.522600 0.056690 -0.493915
O6    O     O_3   0.066460 0.477400 0.556690 -0.492275
O7    O     O_3   0.566460 0.022600 0.056690 -0.493915
O8    O     O_3   0.566460 0.977400 0.556690 -0.492275
O9    O     O_3   0.933490 0.477290 0.133000 -0.492427
O10   O     O_3   0.933490 0.522710 0.633000 -0.479789
O11   O     O_3   0.433490 0.977290 0.133000 -0.492427
O12   O     O_2   0.885810 0.564730 0.385040 -0.478365
O13   O     O_3   0.433490 0.022710 0.633000 -0.479789
O14   O     O_3   0.980190 0.395350 0.639000 -0.484537
O15   O     O_3   0.980190 0.604650 0.139000 -0.467529
O16   O     O_3   0.480190 0.895350 0.639000 -0.484537
O17   O     O_3   0.480190 0.104650 0.139000 -0.467530
O18   O     O_2   0.893192 0.355100 0.755101 -0.467063
O19   O     O_2   0.889310 0.640916 0.250374 -0.485390
O20   O     O_2   0.393192 0.855100 0.755101 -0.467063
O21   O     O_2   0.389310 0.140916 0.250374 -0.485391
O22   O     O_3   0.820949 0.486813 0.040973 -0.642059
O23   O     O_2   0.385810 0.935270 0.885040 -0.461329
O24   O     O_3   0.820469 0.514108 0.553215 -0.643217
O25   O     O_3   0.320949 0.986813 0.040973 -0.642059
O26   O     O_3   0.320469 0.014108 0.553215 -0.643217
O27   O     O_3   0.976413 0.301380 0.680054 -0.558213
O28   O     O_3   0.970927 0.697191 0.192517 -0.568653
O29   O     O_3   0.476413 0.801380 0.680054 -0.558213
O30   O     O_3   0.470927 0.197191 0.192517 -0.568653
O31   O     O_2   0.113920 0.434910 0.804950 -0.470462
O32   O     O_2   0.113920 0.565090 0.304950 -0.470786
O33   O     O_2   0.613920 0.934910 0.804950 -0.470462
O34   O     O_2   0.385810 0.064730 0.385040 -0.478365
O35   O     O_2   0.613920 0.065090 0.304950 -0.470786
O36   O     O_3   0.019410 0.395290 0.051170 -0.479819
O37   O     O_3   0.019410 0.604710 0.551170 -0.479447
O38   O     O_3   0.519410 0.895290 0.051170 -0.479819
O39   O     O_3   0.519410 0.104710 0.551170 -0.479447
O40   O     O_2   0.109464 0.354993 0.935020 -0.497662
O41   O     O_2   0.109669 0.643475 0.435131 -0.486630
O42   O     O_2   0.609464 0.854993 0.935020 -0.497662
O43   O     O_2   0.609669 0.143475 0.435131 -0.486630
O44   O     O_3   0.040838 0.220379 0.632036 -0.654021
O45   O     O_3   0.179200 0.485786 0.642383 -0.640010
O46   O     O_3   0.075099 0.769959 0.020897 -0.671100
O47   O     O_3   0.540838 0.720379 0.632036 -0.654021
O48   O     O_3   0.575099 0.269959 0.020897 -0.671101
O49   O     O_3   0.876705 0.263291 0.591994 -0.640691
O50   O     O_3   0.875960 0.735812 0.098474 -0.648679
O51   O     O_3   0.376705 0.763291 0.591994 -0.640691
O52   O     O_3   0.375960 0.235812 0.098474 -0.648679
O53   O     O_2   0.722313 0.370247 0.500216 -0.615991
O54   O     O_2   0.670307 0.606903 0.106901 -0.583860
O55   O     O_2   0.222313 0.870247 0.500216 -0.615992
O56   O     O_3   0.179641 0.514137 0.142483 -0.640536
O57   O     O_2   0.170307 0.106903 0.106901 -0.583860
O58   O     O_3   0.679200 0.985785 0.642383 -0.640010
O59   O     O_3   0.679641 0.014137 0.142483 -0.640536
O60   O     O_3   0.030968 0.299523 0.028587 -0.610468
P1    P     P_3+3 0.880180 0.450420 0.058010 0.966085
P2    P     P_3+3 0.068442 0.649032 0.572126 0.954791
P3    P     P_3+3 0.567862 0.850305 0.072222 0.933069
P4    P     P_3+3 0.568442 0.149032 0.572126 0.954791
P5    P     P_3+3 0.932502 0.649593 0.120290 0.997699
P6    P     P_3+3 0.934775 0.349075 0.618595 1.015484
P7    P     P_3+3 0.432502 0.149592 0.120290 0.997699
P8    P     P_3+3 0.434775 0.849075 0.618595 1.015484
P9    P     P_3+3 0.880180 0.549580 0.558010 0.974138
P10   P     P_3+3 0.380180 0.950420 0.058010 0.966085
P11   P     P_3+3 0.380180 0.049580 0.558010 0.974138
P12   P     P_3+3 0.119600 0.450040 0.631910 0.970313
P13   P     P_3+3 0.119600 0.549960 0.131910 0.970309
P14   P     P_3+3 0.619600 0.950040 0.631910 0.970313
P15   P     P_3+3 0.619600 0.049960 0.131910 0.970309
P16   P     P_3+3 0.067862 0.350305 0.072222 0.933069

loop_
_geom_bond_atom_site_label_1
_geom_bond_atom_site_label_2
_ccdc_geom_bond_type
C96   C149  A    
Ba3   O23   S    
C69   H38   S    
C80   C97   A    
C83   C87   A    
C52   H1    S    
C41   H104  S    
C139  H102  S    
C156  H84   S    
C14   C128  A    
C33   P11   S    
C37   H6    S    
C46   C75   A    
C164  H110  S    
C2    C71   S    
O26   P11   S    
C51   H58   S    
O6    P12   S    
C91   C95   A    
C57   C76   A    
C25   C29   A    
C107  H123  S    
C13   C35   A    
C85   C90   A    
C5    C9    A    
C60   C80   A    
Ba1   O5    S    
C46   H87   S    
C4    C164  A    
C87   C92   A    
C7    C11   A    
C119  C141  A    
O24   P9    S    
C13   C72   S    
C115  P12   S    
C64   H25   S    
C147  C151  A    
C157  H133  S    
O10   P9    S    
O32   P13   D    
C73   O57   D    
C22   P5    S    
C7    C163  A    
C77   O46   S    
C126  C130  A    
C3    H111  S    
C63   H19   S    
C9    C159  A    
C151  C158  A    
C41   H44   S    
C86   C91   A    
C77   H113  S    
C42   H24   S    
C40   H93   S    
O56   P13   S    
C128  C133  A    
C94   C98   A    
C125  C160  A    
C66   H29   S    
C69   O52   S    
C15   C19   A    
C107  C156  S    
C53   H74   S    
C48   H59   S    
C34   H8    S    
C108  O4    S    
C136  H99   S    
C162  H108  S    
C125  C129  A    
C113  H94   S    
C79   C96   A    
C62   H18   S    
C109  H90   S    
O1    P1    D    
C12   C21   A    
C24   C143  A    
O23   P10   D    
C2    C121  A    
C142  H106  S    
C153  H81   S    
C71   O54   D    
Ba4   P11   S    
C43   C48   S    
C61   H12   S    
C115  C119  A    
Ba3   P14   S    
C102  C111  A    
C23   P8    S    
C155  H83   S    
C34   C39   S    
C111  H91   S    
C57   C154  A    
C31   C133  A    
C126  C161  A    
Ba1   O1    S    
C47   C51   S    
Ba3   O13   S    
Ba2   O12   S    
C123  C127  A    
C91   C104  A    
C3    C148  A    
C66   O50   S    
C37   C41   S    
O5    P13   S    
C16   C130  A    
C88   O47   S    
C65   O49   S    
C114  P13   S    
C74   C83   A    
Ba1   O6    S    
C141  H105  S    
C12   C17   A    
O13   P11   S    
Ba3   O8    S    
C87   C101  A    
C56   C110  A    
C82   C100  A    
C67   H32   S    
C94   C120  A    
C58   C82   A    
C117  P14   S    
C105  H125  S    
C28   C32   A    
C101  C109  A    
O14   P6    S    
Ba4   O7    S    
C75   C80   A    
C31   P9    S    
C43   H46   S    
C65   H27   S    
C114  C118  A    
C12   C127  A    
C145  C149  A    
C135  C139  A    
O9    P1    S    
C121  C137  A    
C150  C161  A    
C110  C136  A    
O29   P8    S    
C163  H109  S    
C141  C146  A    
C4    C8    A    
C44   H47   S    
C68   H89   S    
C66   H30   S    
Ba1   O10   S    
Ba4   O35   S    
C155  H131  S    
O60   P16   S    
C95   C122  A    
C70   H39   S    
C44   C49   S    
O7    P15   S    
C90   C103  A    
Ba2   O32   S    
C26   C30   A    
C35   C74   A    
C148  C152  A    
C6    C10   A    
C130  C135  A    
C30   P1    S    
O39   P4    S    
C64   H23   S    
C120  C142  A    
C112  C116  A    
C55   H76   S    
C61   O44   S    
C19   O51   S    
C50   H57   S    
O22   P1    S    
C89   C102  A    
C6    C162  A    
C42   H45   S    
O31   P12   D    
O27   P6    S    
C24   C73   S    
C73   H42   S    
C11   C20   A    
C60   C126  A    
C123  C158  A    
C111  C115  A    
Ba4   O17   S    
C62   H17   S    
C50   H66   S    
Ba3   Ba4   S    
C89   C93   A    
C99   H116  S    
C84   H96   S    
C69   H37   S    
O3    P3    S    
C45   H53   S    
C14   C18   A    
C104  C113  A    
C144  C148  A    
O11   P10   S    
C34   H4    S    
O36   P16   S    
C62   O46   S    
C40   H43   S    
C55   C99   S    
C59   C132  A    
C72   O55   D    
O19   P5    D    
C93   C119  A    
C29   H72   S    
C39   H35   S    
C32   C134  A    
C97   C150  A    
C108  H124  S    
C92   C96   A    
Ba2   P9    S    
C85   H97   S    
C10   C160  A    
C103  C112  A    
C8    C158  A    
C142  C147  A    
C157  H3    S    
C36   C40   S    
C11   C161  A    
C26   H68   S    
C54   C88   S    
C50   H62   S    
C81   C98   A    
Ba4   P15   S    
Ba1   P12   S    
C67   H34   S    
C43   O22   S    
Ba3   P10   S    
C83   H95   S    
C1    C52   S    
O30   P7    S    
C14   C22   A    
C153  H134  S    
O40   P16   D    
C41   H13   S    
C105  H121  S    
C2    C68   A    
C108  C157  S    
C38   O58   S    
Ba1   O31   S    
C90   C94   A    
C105  O60   S    
O2    P2    S    
C67   H33   S    
C38   C42   S    
Ba2   P13   S    
C76   C85   A    
C110  C154  A    
C132  C138  A    
C20   O52   S    
C74   C79   A    
C152  C159  A    
Ba2   O5    S    
C34   O56   S    
O45   P12   S    
C118  C140  A    
C28   H70   S    
C95   C100  A    
C105  C153  S    
C129  C134  A    
C47   H50   S    
C21   P6    S    
O17   P7    S    
C1    H112  S    
O42   P3    D    
C77   H78   S    
Ba4   O11   S    
C75   C84   A    
C131  C136  A    
C1    O44   S    
C106  O2    S    
C137  H100  S    
C51   H63   S    
Ba4   O34   S    
O37   P2    S    
C134  C138  A    
C70   C154  S    
C78   C82   A    
C146  C150  A    
O41   P2    D    
C29   C33   A    
C59   C79   A    
O8    P14   S    
O43   P4    D    
C107  O3    S    
C101  P2    S    
C76   C81   A    
C71   H40   S    
C64   H22   S    
C36   O45   S    
Ba1   O14   S    
O58   P14   S    
Ba2   O9    S    
O12   P9    D    
Ba4   O39   S    
C155  H135  S    
Ba3   O16   S    
Ba1   O36   S    
C156  H136  S    
O20   P8    D    
C4    H117  S    
C53   O28   S    
C27   C31   A    
C49   H65   S    
C63   H20   S    
C44   H52   S    
C21   C26   A    
C133  C137  A    
C122  C144  A    
O25   P10   S    
C54   O29   S    
C23   C28   A    
Ba3   O7    S    
C56   C123  A    
C51   H67   S    
Ba3   O33   S    
C58   C121  A    
C56   C81   A    
C15   C129  A    
C99   H80   S    
C78   C86   A    
C92   C118  A    
C138  H101  S    
Ba4   O8    S    
C63   O47   S    
C53   H49   S    
C30   C131  A    
C68   C78   A    
C146  C163  A    
C55   O30   S    
C65   H26   S    
C9    C18   A    
C59   C125  A    
C156  H132  S    
C54   H75   S    
C48   H55   S    
C39   H126  S    
C67   O51   S    
C147  C164  A    
C49   H61   S    
C72   H41   S    
C52   H73   S    
C66   H31   S    
O16   P8    S    
C17   O49   S    
O59   P15   S    
C157  H85   S    
C35   H86   S    
C49   H56   S    
C139  C143  A    
C45   H48   S    
C5    H118  S    
C70   O53   D    
C86   H98   S    
C7    H120  S    
C127  C131  A    
C38   H7    S    
C36   H5    S    
C45   O25   S    
O4    P4    S    
C47   H54   S    
C45   C50   S    
C1    H77   S    
Ba2   O15   S    
Ba1   Ba2   S    
C103  P4    S    
C113  C117  A    
C37   O59   S    
C24   C46   A    
C16   C20   A    
C88   H114  S    
C153  H130  S    
C15   C23   A    
C38   H11   S    
C112  H92   S    
C104  P3    S    
C27   H69   S    
C22   C27   A    
C42   H115  S    
O34   P11   D    
C124  C128  A    
C88   H79   S    
C16   C25   A    
C69   H36   S    
C149  C160  A    
C37   H10   S    
C140  H103  S    
C102  P16   S    
C48   H64   S    
C43   H51   S    
C8    C17   A    
C65   H28   S    
C36   H9    S    
O15   P5    S    
C10   C19   A    
C55   H71   S    
C140  C145  A    
C18   O50   S    
C61   H14   S    
C47   O26   S    
C13   C132  A    
O28   P5    S    
C144  H107  S    
C100  C152  A    
C64   O48   S    
C57   H88   S    
C60   C143  A    
C33   C135  A    
C99   O48   S    
C53   C77   S    
C124  C159  A    
C54   H60   S    
Ba2   O37   S    
C61   H15   S    
C3    C5    A    
C62   H16   S    
C84   C89   A    
O21   P7    D    
C107  H128  S    
O18   P6    D    
Ba1   P1    S    
C6    H119  S    
C145  C162  A    
C63   H21   S    
C32   P10   S    
C106  H127  S    
C108  H129  S    
C116  P15   S    
O33   P14   D    
O38   P3    S    
C25   P7    S    
C117  C122  A    
C52   O27   S    
Ba3   O38   S    
C58   C124  A    
C39   H82   S    
C44   O24   S    
C106  H122  S    
C40   H2    S    
C109  C114  A    
Ba2   O6    S    
O35   P15   D    
C98   C151  A    
C93   C97   A    
C106  C155  S    
C116  C120  A    
