data_mof_unit_1010.cif
_audit_creation_date              2012-12-11T15:12:17-0500
_audit_creation_method            fapswitch 2.2
_symmetry_space_group_name_H-M    P1
_symmetry_Int_Tables_number       1
_space_group_crystal_system       triclinic
_cell_length_a                    30.540069
_cell_length_b                    22.29333
_cell_length_c                    18.052751
_cell_angle_alpha                 90.018358
_cell_angle_beta                  123.054337
_cell_angle_gamma                 89.988037
_cell_volume                      10301.7731626

loop_
_atom_site_label
_atom_site_type_symbol
_atom_type_description
_atom_site_fract_x
_atom_site_fract_y
_atom_site_fract_z
_atom_type_partial_charge
C1    C     C_R   0.533687 0.612765 0.704906 0.532642
C2    C     C_R   0.216655 0.640312 0.420803 0.145309
C3    C     C_R   0.330849 0.287749 0.980162 0.178356
C4    C     C_R   0.862698 0.319584 0.166126 0.185058
C5    C     C_R   0.169088 0.787635 0.019617 0.180546
C6    C     C_R   0.136433 0.320003 0.834356 0.185164
C7    C     C_R   0.830831 0.787861 0.980055 0.180529
C8    C     C_R   0.277657 0.785584 0.127581 0.079645
C9    C     C_R   0.752681 0.332063 0.066542 0.076989
C10   C     C_R   0.722255 0.785706 0.872338 0.079551
C11   C     C_R   0.246337 0.333628 0.932604 0.077511
C12   C     C_R   0.776806 0.283687 0.125872 0.079896
C13   C     C_R   0.304259 0.217372 0.419742 0.119673
C14   C     C_R   0.253608 0.833551 0.067368 0.077208
C15   C     C_R   0.222276 0.285693 0.872299 0.079036
C16   C     C_R   0.746309 0.833675 0.932577 0.077436
C17   C     C_R   0.785009 0.377787 0.066804 -0.200945
C18   C     C_R   0.247348 0.747841 0.145225 -0.213888
C19   C     C_R   0.213896 0.378467 0.934011 -0.201179
C20   C     C_R   0.752541 0.748021 0.854534 -0.213932
C21   C     C_R   0.286056 0.878424 0.066097 -0.201478
C22   C     C_R   0.746454 0.244830 0.141992 -0.213760
C23   C     C_R   0.713862 0.878500 0.933995 -0.201743
C24   C     C_R   0.783277 0.640542 0.579179 0.145566
C25   C     C_R   0.252567 0.247999 0.854521 -0.214000
C26   C     C_R   0.839554 0.372559 0.119214 -0.215961
C27   C     C_R   0.193501 0.749568 0.092369 -0.195155
C28   C     C_R   0.159377 0.372753 0.882200 -0.215878
C29   C     C_R   0.806392 0.749807 0.907261 -0.195279
C30   C     C_R   0.340575 0.872718 0.117952 -0.216120
C31   C     C_R   0.692628 0.245976 0.088277 -0.196583
C32   C     C_R   0.659346 0.872741 0.882262 -0.216950
C33   C     C_R   0.306416 0.249733 0.907325 -0.190114
C34   C     C_R   0.598497 0.575646 0.427059 0.027636
C35   C     C_R   0.196230 0.717896 0.581450 0.119574
C36   C     C_R   0.426263 0.386674 0.572497 -0.069478
C37   C     C_R   0.401479 0.575567 0.572940 0.027583
C38   C     C_R   0.573661 0.386458 0.427694 -0.070359
C39   C     C_R   0.098629 0.075378 0.427168 0.029700
C40   C     C_R   0.926372 0.886486 0.572325 -0.070211
C41   C     C_R   0.901525 0.075640 0.572986 0.027407
C42   C     C_R   0.073641 0.886495 0.427622 -0.070526
C43   C     C_R   0.396253 0.611485 0.303737 -0.222899
C44   C     C_R   0.615388 0.410666 0.737762 -0.215145
C45   C     C_R   0.603753 0.611476 0.696349 -0.222743
C46   C     C_R   0.716659 0.140121 0.421235 0.144666
C47   C     C_R   0.384545 0.410861 0.262034 -0.213947
C48   C     C_R   0.896235 0.111445 0.303697 -0.223914
C49   C     C_R   0.115466 0.910930 0.738029 -0.213793
C50   C     C_R   0.103727 0.111500 0.696233 -0.222786
C51   C     C_R   0.884527 0.910966 0.261918 -0.213900
C52   C     C_R   0.576585 0.646622 0.720783 -0.108879
C53   C     C_R   0.406661 0.390464 0.216914 -0.113362
C54   C     C_R   0.423423 0.646647 0.279366 -0.108996
C55   C     C_R   0.593149 0.390082 0.782527 -0.113742
C56   C     C_R   0.076555 0.146675 0.720614 -0.108850
C57   C     C_R   0.803718 0.717952 0.418498 0.119593
C58   C     C_R   0.906644 0.890600 0.216785 -0.113074
C59   C     C_R   0.923405 0.146563 0.279318 -0.110640
C60   C     C_R   0.093341 0.890524 0.783109 -0.113115
C61   C     C_R   0.648054 0.587735 0.499228 0.010403
C62   C     C_R   0.390154 0.353499 0.499232 0.017077
C63   C     C_R   0.351915 0.587629 0.500777 0.010514
C64   C     C_R   0.609655 0.353257 0.501156 0.018077
C65   C     C_R   0.148230 0.087166 0.499418 0.008957
C66   C     C_R   0.890406 0.853248 0.498898 0.018279
C67   C     C_R   0.851961 0.087716 0.500863 0.010386
C68   C     C_R   0.283157 0.140674 0.580255 0.124489
C69   C     C_R   0.109603 0.853252 0.501034 0.018359
C70   C     C_R   0.615247 0.265676 0.421051 -0.192526
C71   C     C_R   0.309123 0.611726 0.581639 -0.185245
C72   C     C_R   0.383628 0.267451 0.580403 -0.205599
C73   C     C_R   0.690823 0.611870 0.418357 -0.185916
C74   C     C_R   0.115293 0.765922 0.420661 -0.192372
C75   C     C_R   0.809354 0.111990 0.581961 -0.186096
C76   C     C_R   0.884700 0.765976 0.579265 -0.192275
C77   C     C_R   0.191596 0.110336 0.419134 -0.185492
C78   C     C_R   0.629161 0.292864 0.501182 0.080131
C79   C     C_R   0.687249 0.196351 0.501211 -0.027513
C80   C     C_R   0.305016 0.601391 0.501403 0.088595
C81   C     C_R   0.370555 0.293367 0.499946 0.090356
C82   C     C_R   0.694934 0.601573 0.498597 0.088627
C83   C     C_R   0.129085 0.792885 0.500874 0.080055
C84   C     C_R   0.805113 0.101488 0.501642 0.088571
C85   C     C_R   0.870908 0.792899 0.499048 0.079986
C86   C     C_R   0.195275 0.100634 0.499161 0.091422
C87   C     C_R   0.666499 0.265389 0.581262 -0.195876
C88   C     C_R   0.257250 0.611539 0.421420 -0.192265
C89   C     C_R   0.334009 0.264910 0.420179 -0.197603
C90   C     C_R   0.223305 0.657422 0.501405 -0.021377
C91   C     C_R   0.742687 0.611790 0.578575 -0.192504
C92   C     C_R   0.166288 0.765227 0.580866 -0.194999
C93   C     C_R   0.757248 0.111419 0.421737 -0.192188
C94   C     C_R   0.833677 0.765242 0.419062 -0.195027
C95   C     C_R   0.242713 0.111474 0.579363 -0.190551
C96   C     C_3   0.355261 0.685515 0.780844 0.197101
C97   C     C_3   0.405615 0.661329 0.860654 -0.703522
C98   C     C_3   0.566439 0.172496 0.195817 0.294417
C99   C     C_3   0.510693 0.192529 0.129277 -0.887962
C100  C     C_3   0.644657 0.685583 0.219172 0.197194
C101  C     C_R   0.312930 0.196530 0.500457 -0.018258
C102  C     C_3   0.594315 0.661400 0.139319 -0.703823
C103  C     C_3   0.442002 0.181720 0.789845 0.240634
C104  C     C_3   0.480426 0.206736 0.881641 -0.829192
C105  C     C_3   0.855676 0.186178 0.780958 0.198193
C106  C     C_3   0.906098 0.162198 0.860851 -0.704917
C107  C     C_3   0.067524 0.674365 0.193711 0.288369
C108  C     C_3   0.011966 0.694591 0.126306 -0.879621
C109  C     C_3   0.145922 0.182690 0.219234 0.193938
C110  C     C_3   0.095902 0.157708 0.139601 -0.700416
C111  C     C_3   0.932154 0.674846 0.806652 0.288417
C112  C     C_R   0.457328 0.412225 0.261173 0.446645
C113  C     C_R   0.776630 0.657585 0.498571 -0.021391
C114  C     C_3   0.987775 0.694865 0.874087 -0.879092
C115  C     C_R   0.187119 0.696377 0.500706 -0.027430
C116  C     C_R   0.723444 0.157425 0.501878 -0.021358
C117  C     C_R   0.812827 0.696490 0.499252 -0.027517
C118  C     C_R   0.276935 0.157171 0.499717 -0.020172
C119  C     C_R   0.644524 0.217955 0.419936 0.000043
C120  C     C_R   0.268814 0.640583 0.582605 -0.028439
C121  C     C_R   0.354590 0.219671 0.581650 -0.020465
C122  C     C_R   0.731121 0.640720 0.417378 -0.028379
C123  C     C_R   0.144550 0.718225 0.419429 0.000330
C124  C     C_R   0.466314 0.612792 0.295174 0.532717
C125  C     C_R   0.769072 0.140809 0.583038 -0.028207
C126  C     C_R   0.855413 0.718342 0.580522 0.000472
C127  C     C_R   0.231930 0.139420 0.418448 -0.027133
C128  C     C_R   0.738704 0.196340 0.662282 -0.385578
C129  C     C_R   0.171838 0.657373 0.340372 -0.425425
C130  C     C_R   0.262719 0.194554 0.339482 -0.387190
C131  C     C_R   0.828092 0.657629 0.659604 -0.425910
C132  C     C_R   0.238327 0.695964 0.661786 -0.385029
C133  C     C_R   0.671668 0.156895 0.340855 -0.424393
C134  C     C_R   0.761608 0.696012 0.338170 -0.385081
C135  C     C_R   0.542616 0.412047 0.738622 0.447136
C136  C     C_R   0.327095 0.159315 0.660686 -0.387531
C137  C     C_R   0.275376 0.658250 0.663062 0.551068
C138  C     C_R   0.634528 0.195243 0.339120 0.547570
C139  C     C_R   0.724555 0.658336 0.336913 0.550867
C140  C     C_R   0.363304 0.198474 0.662227 0.534090
C141  C     C_R   0.775756 0.158648 0.663525 0.550650
C142  C     C_R   0.134704 0.695820 0.338535 0.548594
C143  C     C_R   0.225771 0.156565 0.338107 0.550338
C144  C     C_R   0.865250 0.696023 0.661438 0.548925
C145  C     C_R   0.405315 0.707022 0.240506 0.218112
C146  C     C_R   0.033678 0.112810 0.704827 0.532727
C147  C     C_R   0.619188 0.355650 0.864672 0.180453
C148  C     C_R   0.594671 0.707004 0.759680 0.217889
C149  C     C_R   0.380281 0.356843 0.133848 0.173583
C150  C     C_R   0.905086 0.206706 0.240012 0.220429
C151  C     C_R   0.119693 0.856854 0.866104 0.173768
C152  C     C_R   0.094651 0.207068 0.759468 0.217980
C153  C     C_R   0.880275 0.857004 0.133697 0.173847
C154  C     C_R   0.417652 0.809790 0.210200 -0.238168
C155  C     C_R   0.615686 0.275536 0.951234 -0.200766
C156  C     C_R   0.582297 0.809744 0.790127 -0.238761
C157  C     C_R   0.957319 0.912316 0.261111 0.446943
C158  C     C_R   0.383634 0.278756 0.044320 -0.196457
C159  C     C_R   0.916957 0.310027 0.211276 -0.238175
C160  C     C_R   0.116310 0.778659 0.955401 -0.199305
C161  C     C_R   0.082304 0.309816 0.789929 -0.237960
C162  C     C_R   0.883631 0.778918 0.044168 -0.199361
C163  C     C_R   0.438695 0.753987 0.249970 -0.082195
C164  C     C_R   0.592133 0.308873 0.874198 -0.086699
C165  C     C_R   0.561278 0.753929 0.750345 -0.082133
C166  C     C_R   0.407275 0.310891 0.122467 -0.080368
C167  C     C_R   0.938288 0.254192 0.250601 -0.082384
C168  C     C_R   0.966325 0.112801 0.295215 0.534088
C169  C     C_R   0.092684 0.810864 0.877340 -0.079785
C170  C     C_R   0.061268 0.254014 0.750110 -0.081794
C171  C     C_R   0.907282 0.811078 0.122294 -0.079766
C172  C     C_R   0.352023 0.718272 0.197402 -0.258406
C173  C     C_R   0.671496 0.366610 0.930556 -0.224389
C174  C     C_R   0.647948 0.718313 0.802664 -0.258566
C175  C     C_R   0.327776 0.367782 0.068720 -0.223180
C176  C     C_R   0.851660 0.217202 0.195707 -0.258382
C177  C     C_R   0.172192 0.867769 0.931288 -0.223767
C178  C     C_R   0.147935 0.218353 0.802485 -0.258576
C179  C     C_R   0.042672 0.912261 0.738831 0.447103
C180  C     C_R   0.827758 0.867904 0.068600 -0.223859
C181  C     C_R   0.331269 0.775118 0.166371 0.068263
C182  C     C_R   0.697599 0.329949 0.006121 0.065519
C183  C     C_R   0.668666 0.775177 0.833688 0.068274
C184  C     C_R   0.301514 0.331902 0.992239 0.066781
C185  C     C_R   0.830559 0.273960 0.165299 0.067891
C186  C     C_R   0.198435 0.831832 0.007684 0.066603
C187  C     C_R   0.168674 0.275202 0.833565 0.068734
C188  C     C_R   0.801492 0.831999 0.992149 0.066557
C189  C     C_R   0.646175 0.577443 0.572518 -0.143158
C190  C     C_R   0.696476 0.218068 0.581932 0.119766
C191  C     C_R   0.374565 0.389107 0.426067 -0.118690
C192  C     C_R   0.353813 0.577400 0.427488 -0.142958
C193  C     C_R   0.625350 0.389111 0.574083 -0.117677
C194  C     C_R   0.146226 0.077140 0.572608 -0.142811
C195  C     C_R   0.874716 0.889049 0.425922 -0.117839
C196  C     C_R   0.853820 0.077448 0.427529 -0.142485
C197  C     C_R   0.125289 0.889054 0.574037 -0.117783
C198  C     C_R   0.363516 0.819953 0.165714 0.185166
C199  C     C_R   0.668297 0.284708 0.016323 0.185204
C200  C     C_R   0.636418 0.819965 0.834487 0.185780
H1    H     H_    0.691621 0.401441 0.919051 0.121676
H2    H     H_    0.480499 0.747551 0.286554 0.170996
H3    H     H_    0.435272 0.697614 0.890866 0.182565
H4    H     H_    0.398225 0.644197 0.910647 0.259872
H5    H     H_    0.564694 0.129218 0.225157 0.072551
H6    H     H_    0.586148 0.165556 0.159800 0.094000
H7    H     H_    0.510700 0.235538 0.098216 0.288289
H8    H     H_    0.490054 0.158008 0.076898 0.196623
H9    H     H_    0.489642 0.198789 0.163084 0.244865
H10   H     H_    0.659108 0.722720 0.196761 0.097767
H11   H     H_    0.635393 0.703542 0.266803 0.120607
H12   H     H_    0.578844 0.624366 0.159846 0.285824
H13   H     H_    0.446242 0.298333 0.175460 0.147789
H14   H     H_    0.564648 0.697679 0.109150 0.182621
H15   H     H_    0.601717 0.644302 0.089312 0.259810
H16   H     H_    0.463114 0.173573 0.756325 0.085845
H17   H     H_    0.426950 0.138300 0.797874 0.081410
H18   H     H_    0.460468 0.213814 0.917161 0.256470
H19   H     H_    0.513186 0.174739 0.919896 0.183316
H20   H     H_    0.496221 0.250255 0.876499 0.285540
H21   H     H_    0.841201 0.223377 0.803259 0.097598
H22   H     H_    0.864843 0.204006 0.733156 0.120758
H23   H     H_    0.921591 0.125098 0.840440 0.286057
H24   H     H_    0.519481 0.747459 0.713844 0.171085
H25   H     H_    0.935707 0.198546 0.890768 0.182653
H26   H     H_    0.898788 0.145245 0.911020 0.259708
H27   H     H_    0.065430 0.630473 0.221320 0.074039
H28   H     H_    0.088017 0.668632 0.158786 0.093641
H29   H     H_    0.012334 0.738138 0.096747 0.288015
H30   H     H_    0.991845 0.660658 0.072876 0.194536
H31   H     H_    0.990175 0.699863 0.158991 0.244117
H32   H     H_    0.160193 0.219727 0.196358 0.099179
H33   H     H_    0.136293 0.200955 0.266259 0.121208
H34   H     H_    0.080603 0.120784 0.160620 0.284375
H35   H     H_    0.053718 0.798327 0.824302 0.147929
H36   H     H_    0.065952 0.193642 0.108523 0.183389
H37   H     H_    0.103652 0.140249 0.090176 0.260121
H38   H     H_    0.934103 0.630671 0.779508 0.073973
H39   H     H_    0.911516 0.669758 0.841425 0.093790
H40   H     H_    0.987553 0.738716 0.903134 0.288389
H41   H     H_    0.007644 0.661156 0.927879 0.194647
H42   H     H_    0.009714 0.699455 0.841571 0.243904
H43   H     H_    0.980161 0.248152 0.287853 0.169875
H44   H     H_    0.946265 0.798543 0.175261 0.147847
H45   H     H_    0.019469 0.247560 0.713584 0.171132
H46   H     H_    0.443436 0.844570 0.213524 0.132620
H47   H     H_    0.593877 0.239722 0.957320 0.124628
H48   H     H_    0.556508 0.844490 0.786905 0.132103
H49   H     H_    0.325917 0.681164 0.183623 0.130724
H50   H     H_    0.405535 0.243867 0.036603 0.133580
H51   H     H_    0.942621 0.345342 0.215616 0.132936
H52   H     H_    0.094405 0.743732 0.963005 0.133330
H53   H     H_    0.056521 0.344574 0.786700 0.132701
H54   H     H_    0.905537 0.744038 0.036442 0.133443
H55   H     H_    0.769067 0.418230 0.028273 0.135353
H56   H     H_    0.265002 0.715763 0.198896 0.131026
H57   H     H_    0.229728 0.418606 0.973389 0.134930
H58   H     H_    0.734868 0.715945 0.800838 0.131055
H59   H     H_    0.270231 0.918584 0.026797 0.135037
H60   H     H_    0.307634 0.401885 0.081451 0.121229
H61   H     H_    0.764067 0.212320 0.195088 0.130588
H62   H     H_    0.729684 0.918663 0.973318 0.134638
H63   H     H_    0.234897 0.215951 0.800787 0.131837
H64   H     H_    0.679066 0.572269 0.639748 0.094167
H65   H     H_    0.346224 0.378275 0.358018 0.097628
H66   H     H_    0.320931 0.572220 0.360249 0.094159
H67   H     H_    0.653694 0.378461 0.642156 0.097263
H68   H     H_    0.179033 0.071765 0.639861 0.094423
H69   H     H_    0.846449 0.878309 0.357828 0.097376
H70   H     H_    0.820913 0.072311 0.360301 0.093830
H71   H     H_    0.674079 0.681240 0.816359 0.130693
H72   H     H_    0.153561 0.878318 0.642121 0.097424
H73   H     H_    0.589594 0.566596 0.361937 0.186827
H74   H     H_    0.447620 0.370897 0.639052 0.147385
H75   H     H_    0.410364 0.566423 0.638027 0.186806
H76   H     H_    0.552400 0.370578 0.361159 0.148339
H77   H     H_    0.089744 0.066385 0.362046 0.186270
H78   H     H_    0.947655 0.870655 0.638865 0.148303
H79   H     H_    0.910448 0.066558 0.638105 0.186911
H80   H     H_    0.052374 0.870686 0.361048 0.148273
H81   H     H_    0.361550 0.623676 0.301918 0.135361
H82   H     H_    0.192344 0.901902 0.918659 0.121364
H83   H     H_    0.656405 0.409398 0.761556 0.123408
H84   H     H_    0.638455 0.623668 0.698179 0.135311
H85   H     H_    0.343542 0.409703 0.238348 0.123241
H86   H     H_    0.861455 0.123626 0.301661 0.135759
H87   H     H_    0.156482 0.909827 0.761795 0.123184
H88   H     H_    0.138412 0.123690 0.698002 0.135606
H89   H     H_    0.843511 0.909877 0.238153 0.123013
H90   H     H_    0.584545 0.284567 0.359042 0.181454
H91   H     H_    0.345236 0.602269 0.643622 0.174008
H92   H     H_    0.413445 0.287210 0.642433 0.177063
H93   H     H_    0.825833 0.179611 0.180959 0.131246
H94   H     H_    0.654721 0.602367 0.356376 0.173932
H95   H     H_    0.084708 0.784979 0.358697 0.181614
H96   H     H_    0.845543 0.102706 0.643903 0.174183
H97   H     H_    0.915308 0.785028 0.641222 0.181794
H98   H     H_    0.155754 0.100231 0.357040 0.172125
H99   H     H_    0.675671 0.283734 0.643653 0.113849
H100  H     H_    0.252632 0.601966 0.358839 0.109120
H101  H     H_    0.325356 0.282573 0.357747 0.113836
H102  H     H_    0.747302 0.602267 0.641160 0.109120
H103  H     H_    0.175374 0.783436 0.643282 0.113970
H104  H     H_    0.807607 0.901988 0.081347 0.121183
H105  H     H_    0.752531 0.101693 0.359115 0.109082
H106  H     H_    0.824585 0.783424 0.356643 0.113941
H107  H     H_    0.247043 0.102493 0.641854 0.108638
H108  H     H_    0.744830 0.211498 0.724330 0.157371
H109  H     H_    0.167833 0.644152 0.279249 0.133294
H110  H     H_    0.256962 0.209124 0.277474 0.158060
H111  H     H_    0.832074 0.644448 0.720713 0.132941
H112  H     H_    0.244365 0.710984 0.723828 0.157500
H113  H     H_    0.667453 0.143526 0.279612 0.134104
H114  H     H_    0.755567 0.710990 0.276122 0.157488
H115  H     H_    0.174054 0.181268 0.816187 0.130606
H116  H     H_    0.331404 0.147213 0.722514 0.151284
H117  H     H_    0.863385 0.408383 0.118785 0.131706
H118  H     H_    0.171183 0.717732 0.104350 0.127687
H119  H     H_    0.135447 0.407929 0.883885 0.131525
H120  H     H_    0.828698 0.718016 0.895159 0.127474
H121  H     H_    0.364509 0.907920 0.116373 0.131679
H122  H     H_    0.670322 0.213321 0.099021 0.127017
H123  H     H_    0.635410 0.907908 0.883950 0.130688
H124  H     H_    0.328722 0.217932 0.895240 0.133989
H125  H     H_    0.524163 0.674765 0.882331 0.367055
H126  H     H_    0.553184 0.296698 0.820588 0.138109
H127  H     H_    0.567833 0.463716 0.252462 0.387548
H128  H     H_    0.475765 0.675015 0.117832 0.367058
H129  H     H_    0.432492 0.463201 0.748812 0.388657
H130  H     H_    0.024283 0.175020 0.882283 0.367025
H131  H     H_    0.067809 0.963961 0.252492 0.387097
H132  H     H_    0.976332 0.175659 0.118765 0.367256
H133  H     H_    0.932167 0.963763 0.747600 0.387466
H134  H     H_    0.340812 0.722638 0.803309 0.097878
H135  H     H_    0.364512 0.703494 0.733218 0.120439
H136  H     H_    0.421092 0.624318 0.840068 0.285776
N1    N     N_R   0.532970 0.559900 0.665210 -0.094598
N2    N     N_R   0.402100 0.440070 0.454470 -0.047780
N3    N     N_R   0.402100 0.559930 0.454470 -0.052814
N4    N     N_R   0.597900 0.440070 0.545530 -0.047944
N5    N     N_R   0.097900 0.059930 0.545530 -0.052946
N6    N     N_R   0.902100 0.940070 0.454470 -0.047987
N7    N     N_R   0.902100 0.059930 0.454470 -0.052757
N8    N     N_R   0.097900 0.940070 0.545530 -0.048016
N9    N     N_R   0.567170 0.559950 0.454460 -0.064412
N10   N     N_R   0.432830 0.440050 0.545540 -0.031873
N11   N     N_R   0.432830 0.559950 0.545540 -0.064667
N12   N     N_R   0.467030 0.440100 0.334790 -0.097638
N13   N     N_R   0.567170 0.440050 0.454460 -0.031353
N14   N     N_R   0.067170 0.059950 0.454460 -0.064296
N15   N     N_R   0.932830 0.940050 0.545540 -0.031381
N16   N     N_R   0.932830 0.059950 0.545540 -0.064432
N17   N     N_R   0.067170 0.940050 0.454460 -0.031445
N18   N     N_R   0.421470 0.559970 0.334770 -0.064198
N19   N     N_R   0.578530 0.440030 0.665230 -0.063665
N20   N     N_R   0.578530 0.559970 0.665230 -0.064162
N21   N     N_R   0.421470 0.440030 0.334770 -0.063875
N22   N     N_R   0.921470 0.059970 0.334770 -0.064167
N23   N     N_R   0.467030 0.559900 0.334790 -0.094451
N24   N     N_R   0.078530 0.940030 0.665230 -0.063867
N25   N     N_R   0.078530 0.059970 0.665230 -0.064292
N26   N     N_R   0.921470 0.940030 0.334770 -0.063856
N27   N     N_R   0.532970 0.440100 0.665210 -0.097983
N28   N     N_R   0.032970 0.059900 0.665210 -0.094471
N29   N     N_R   0.967030 0.940100 0.334790 -0.097576
N30   N     N_R   0.967030 0.059900 0.334790 -0.094544
N31   N     N_R   0.032970 0.940100 0.665210 -0.097613
N32   N     N_R   0.597900 0.559930 0.545530 -0.052818
Ni1   Ni    Ni4+2 0.483030 0.500000 0.604430 0.319270
Ni2   Ni    Ni4+2 0.516970 0.500000 0.395570 0.319401
Ni3   Ni    Ni4+2 0.983030 0.000000 0.604430 0.319516
Ni4   Ni    Ni4+2 0.016970 0.000000 0.395570 0.319418
Ni5   Ni    Ni4+2 0.587400 0.500000 0.604430 0.193391
Ni6   Ni    Ni4+2 0.412600 0.500000 0.395570 0.193374
Ni7   Ni    Ni4+2 0.087400 0.000000 0.604430 0.193413
Ni8   Ni    Ni4+2 0.912600 0.000000 0.395570 0.193209
O1    O     O_2   0.455638 0.667102 0.706470 -0.391559
O2    O     O_2   0.493905 0.370433 0.816172 -0.331335
O3    O     O_2   0.543005 0.464015 0.872416 -0.198182
O4    O     O_3   0.453244 0.465556 0.721735 -0.550812
O5    O     O_2   0.955674 0.167216 0.706463 -0.391497
O6    O     O_2   0.987082 0.071685 0.786427 -0.238005
O7    O     O_3   0.044743 0.164868 0.856297 -0.534591
O8    O     O_2   0.006924 0.870961 0.184744 -0.323683
O9    O     O_2   0.957390 0.964233 0.127693 -0.199665
O10   O     O_3   0.046754 0.966247 0.279021 -0.552494
O11   O     O_2   0.044573 0.167401 0.294662 -0.389315
O12   O     O_2   0.486994 0.571493 0.786230 -0.238052
O13   O     O_2   0.013240 0.072083 0.213911 -0.239316
O14   O     O_3   0.955737 0.165431 0.144470 -0.534252
O15   O     O_2   0.993033 0.870686 0.814985 -0.323957
O16   O     O_2   0.042563 0.963925 0.872407 -0.199646
O17   O     O_3   0.953204 0.966077 0.721042 -0.551929
O18   O     O_3   0.318081 0.638767 0.742890 -0.616866
O19   O     O_3   0.592399 0.217874 0.260254 -0.619322
O20   O     O_3   0.681844 0.638839 0.257090 -0.617060
O21   O     O_3   0.401613 0.223859 0.741629 -0.607996
O22   O     O_3   0.818571 0.139339 0.743347 -0.617186
O23   O     O_3   0.544658 0.664658 0.856392 -0.534089
O24   O     O_3   0.092790 0.718918 0.259735 -0.619821
O25   O     O_3   0.183498 0.136398 0.258271 -0.617637
O26   O     O_3   0.907195 0.719160 0.740206 -0.619912
O27   O     O_2   0.507005 0.370614 0.185066 -0.322615
O28   O     O_2   0.457439 0.463829 0.127604 -0.198696
O29   O     O_3   0.546781 0.466047 0.278993 -0.551987
O30   O     O_2   0.544329 0.667196 0.293622 -0.391509
O31   O     O_2   0.512950 0.571652 0.213613 -0.237895
O32   O     O_3   0.455282 0.664829 0.143756 -0.534088
S1    S     S_3+6 0.502683 0.627988 0.762047 -0.077199
S2    S     S_3+6 0.491879 0.427664 0.209856 -0.024847
S3    S     S_3+6 0.497282 0.628093 0.237995 -0.077109
S4    S     S_3+6 0.508437 0.427529 0.790552 -0.025128
S5    S     S_3+6 0.002731 0.128122 0.762050 -0.077481
S6    S     S_3+6 0.991837 0.927928 0.209788 -0.025814
S7    S     S_3+6 0.997533 0.128396 0.238524 -0.076342
S8    S     S_3+6 0.008126 0.927727 0.790165 -0.025593

loop_
_geom_bond_atom_site_label_1
_geom_bond_atom_site_label_2
_ccdc_geom_bond_type
C7    C29   A    
C171  H44   S    
C160  H52   S    
C74   C83   A    
C136  C140  A    
C66   C85   S    
C110  H37   S    
C41   C67   A    
C1    S1    S    
C49   C60   A    
C32   H123  S    
N3    Ni6   S    
H133  O17   S    
C122  C139  A    
C147  C164  A    
O5    S5    D    
C105  H22   S    
C173  H1    S    
N10   Ni1   S    
C2    C90   A    
C9    C182  A    
N29   Ni4   S    
C11   C15   A    
C113  C122  A    
C154  H46   S    
C91   H102  S    
C10   C20   A    
C45   N20   A    
C3    C158  A    
C13   C130  A    
N16   Ni3   S    
C35   C115  A    
C3    C184  A    
C134  H114  S    
H131  O10   S    
C98   O19   S    
C47   C53   A    
C194  N5    A    
C74   C123  A    
C153  C180  A    
C61   C189  A    
C148  C165  A    
C39   C65   A    
O28   S2    D    
C5    C186  A    
C36   C62   A    
C178  H115  S    
C38   N13   A    
C36   H74   S    
C37   C63   A    
C38   C64   A    
N25   N28   A    
C30   H121  S    
C115  C123  A    
C138  O19   S    
C176  H93   S    
C193  H67   S    
C176  C185  A    
C194  H68   S    
C16   C188  A    
C124  S3    S    
N14   Ni4   S    
C129  C142  A    
C18   H56   S    
C132  C137  A    
C44   H83   S    
C131  H111  S    
C108  H29   S    
C34   C61   A    
C148  C174  A    
C177  C186  A    
N11   Ni1   S    
C99   H7    S    
O13   S7    D    
C60   C151  S    
O29   S2    S    
C75   H96   S    
C58   C153  S    
C152  C170  A    
C7    C188  A    
C43   C54   A    
C43   N18   A    
H129  O4    S    
N7    N16   A    
C127  C143  A    
N12   N21   A    
C54   C145  S    
C62   C81   S    
C164  H126  S    
C173  C182  A    
O4    S4    S    
N22   N30   A    
C124  N23   A    
C191  N2    A    
N22   Ni8   S    
C121  C140  A    
C114  H40   S    
C65   C194  A    
C105  C106  S    
C168  N30   A    
C100  O20   S    
N26   Ni8   S    
C182  C199  A    
C19   H57   S    
N24   N31   A    
C155  H47   S    
H125  O23   S    
C180  H104  S    
O10   S6    S    
C61   C82   S    
C112  N12   A    
C159  H51   S    
N7    Ni8   S    
C80   C88   A    
C10   C16   A    
C44   C55   A    
C12   C185  A    
C159  C167  A    
C128  C190  A    
C84   C93   A    
C86   C95   A    
C14   C21   A    
C144  O26   S    
C98   C99   S    
C94   H106  S    
C98   H6    S    
C35   C132  A    
C109  H33   S    
C78   C87   A    
C128  H108  S    
C24   C131  A    
C162  H54   S    
C48   N22   A    
O8    S6    D    
C108  H30   S    
C60   C179  A    
C101  C118  A    
C70   H90   S    
C51   H89   S    
C97   H136  S    
C76   H97   S    
C154  C198  A    
C109  H32   S    
C146  N28   A    
C75   C84   A    
C151  C177  A    
C63   C192  A    
C12   C22   A    
C172  H49   S    
C2    C129  A    
O27   S2    D    
N27   Ni1   S    
C68   C118  A    
C5    C27   A    
C189  N32   A    
C172  C181  A    
C6    C28   A    
N15   Ni3   S    
C107  H27   S    
C107  C108  S    
O31   S3    D    
N8    N17   A    
C77   C127  A    
C89   H101  S    
N13   Ni2   S    
C145  C172  A    
C52   C148  S    
C141  O22   S    
C64   C193  A    
C53   C149  S    
C191  H65   S    
C51   N26   A    
C63   C80   S    
C34   H73   S    
C162  C171  A    
C134  C139  A    
C129  H109  S    
C21   H59   S    
C145  C163  A    
C45   C52   A    
C107  O24   S    
C50   C56   A    
C189  H64   S    
C73   H94   S    
C197  H72   S    
C90   C120  A    
C31   H122  S    
C104  H19   S    
C157  S6    S    
C47   N21   A    
C128  C141  A    
C42   H80   S    
N5    N14   A    
C106  H23   S    
C6    C161  A    
C139  O20   S    
C5    C160  A    
O12   S1    D    
C106  H25   S    
N8    Ni7   S    
C19   C28   A    
C87   C190  A    
C113  C117  A    
C30   C198  A    
C16   C23   A    
C167  H43   S    
C116  C125  A    
C44   N19   A    
C118  C127  A    
N2    Ni6   S    
C67   C196  A    
C195  H69   S    
C155  C199  A    
C48   C59   A    
C99   H9    S    
C96   H135  S    
C169  H35   S    
O17   S8    S    
C114  H42   S    
C119  C138  A    
C64   C78   S    
C11   C184  A    
C58   C157  A    
C62   C191  A    
N20   Ni5   S    
N3    N11   A    
C100  H11   S    
C183  C200  A    
C151  C169  A    
C57   C94   A    
C72   H92   S    
C105  H21   S    
C76   C85   A    
C126  C144  A    
O14   S7    S    
C9    C12   A    
C135  N27   A    
C59   C168  A    
C166  H13   S    
C177  H82   S    
C140  O21   S    
C42   N17   A    
C175  C184  A    
N31   Ni3   S    
C1    N1    A    
C25   C33   A    
C8    C181  A    
C72   C121  A    
C76   C126  A    
C133  H113  S    
C31   C199  A    
C66   C195  A    
C65   C86   S    
C163  H2    S    
C11   C19   A    
N28   Ni3   S    
C74   H95   S    
C130  H110  S    
C4    C159  A    
C49   H87   S    
C3    C33   A    
C95   H107  S    
C143  O25   S    
C196  N7    A    
C180  C188  A    
C48   H86   S    
C102  H14   S    
C109  O25   S    
N4    Ni5   S    
C193  N4    A    
C79   C119  A    
C160  C169  A    
C196  H70   S    
C88   H100  S    
C56   C152  S    
C137  O18   S    
O7    S5    S    
C72   C81   A    
C175  H60   S    
N24   Ni7   S    
C81   C89   A    
C35   C92   A    
C40   H78   S    
C133  C138  A    
C45   H84   S    
C40   C66   A    
C10   C183  A    
C97   H3    S    
O9    S6    D    
C110  H36   S    
N18   Ni6   S    
C111  H38   S    
C149  C166  A    
C68   C95   A    
C28   H119  S    
C156  H48   S    
C6    C187  A    
C101  C121  A    
C75   C125  A    
C4    C185  A    
C41   H79   S    
N19   Ni5   S    
H130  O7    S    
C51   C58   A    
C90   C115  A    
C104  H18   S    
C178  C187  A    
O30   S3    D    
C92   H103  S    
C57   C134  A    
C17   C26   A    
N30   Ni4   S    
C73   C82   A    
C158  C166  A    
C57   C117  A    
C59   C150  S    
C54   C124  A    
H132  O14   S    
C50   H88   S    
C158  H50   S    
C174  C183  A    
C50   N25   A    
C4    C26   A    
C147  C173  A    
C192  N3    A    
O3    S4    D    
C21   C30   A    
C96   H134  S    
C46   C116  A    
C99   H8    S    
C23   C32   A    
C29   H120  S    
C32   C200  A    
C109  C110  S    
C46   C133  A    
C102  H12   S    
C156  C165  A    
C25   H63   S    
C150  C167  A    
C103  O21   S    
C123  C142  A    
C100  H10   S    
C111  C114  S    
N4    N13   A    
C56   C146  A    
C1    C52   A    
C8    C18   A    
C15   C25   A    
N6    N15   A    
C82   C91   A    
O16   S8    D    
C73   C122  A    
C111  O26   S    
C103  C104  S    
C195  N6    A    
C120  C137  A    
C40   N15   A    
C149  C175  A    
C131  C144  A    
C110  H34   S    
C165  H24   S    
C20   H58   S    
C77   H98   S    
N26   N29   A    
C150  C176  A    
C39   N14   A    
C27   H118  S    
C70   C78   A    
C161  H53   S    
C102  H15   S    
C136  H116  S    
C83   C92   A    
C46   C93   A    
N9    N32   A    
O1    S1    D    
C71   C120  A    
N21   Ni6   S    
N32   Ni5   S    
C14   C186  A    
C142  O24   S    
O23   S1    S    
C22   H61   S    
N18   N23   A    
C36   N10   A    
N5    Ni7   S    
C104  H20   S    
H128  O32   S    
C79   C190  A    
C106  H26   S    
C98   H5    S    
C2    C88   A    
C34   N9    A    
C24   C113  A    
C43   H81   S    
C79   C116  A    
C69   C197  A    
C156  C200  A    
C71   H91   S    
C181  C198  A    
C157  N29   A    
C71   C80   A    
C20   C29   A    
C7    C162  A    
C22   C31   A    
C154  C163  A    
C68   C136  A    
N23   Ni2   S    
C47   H85   S    
C125  C141  A    
C146  S5    S    
C37   N11   A    
C103  H16   S    
C23   H62   S    
C15   C187  A    
C42   C69   A    
C111  H39   S    
C33   H124  S    
C69   C83   S    
C85   C94   A    
C39   H77   S    
C55   C147  S    
O32   S3    S    
C70   C119  A    
C96   C97   S    
C153  C171  A    
C49   N24   A    
C100  C102  S    
C170  H45   S    
C192  H66   S    
C132  H112  S    
N17   Ni4   S    
O11   S7    D    
C130  C143  A    
C103  H17   S    
C161  C170  A    
C53   C112  A    
C9    C17   A    
C26   H117  S    
C77   C86   A    
C96   O18   S    
C41   N16   A    
C13   C101  A    
C24   C91   A    
O6    S5    D    
C93   H105  S    
N9    Ni2   S    
C17   H55   S    
C8    C14   A    
O15   S8    D    
C13   C89   A    
O2    S4    D    
C18   C27   A    
C179  N31   A    
C107  H28   S    
C174  H71   S    
N1    N20   A    
C155  C164  A    
N19   N27   A    
C168  S7    S    
N2    N10   A    
C87   H99   S    
C112  S2    S    
C37   H75   S    
C38   H76   S    
H127  O29   S    
C197  N8    A    
N12   Ni2   S    
C55   C135  A    
C152  C178  A    
C179  S8    S    
C67   C84   S    
C114  H41   S    
N1    Ni1   S    
C105  O22   S    
N25   Ni7   S    
C117  C126  A    
N6    Ni8   S    
C97   H4    S    
C135  S4    S    
C108  H31   S    
