data_mof_unit_1544.cif
_audit_creation_date              2012-12-11T14:06:57-0500
_audit_creation_method            fapswitch 2.2
_symmetry_space_group_name_H-M    P1
_symmetry_Int_Tables_number       1
_space_group_crystal_system       triclinic
_cell_length_a                    27.570455
_cell_length_b                    27.635399
_cell_length_c                    27.63331
_cell_angle_alpha                 89.949979
_cell_angle_beta                  90.178425
_cell_angle_gamma                 90.128576
_cell_volume                      21054.2230519

loop_
_atom_site_label
_atom_site_type_symbol
_atom_type_description
_atom_site_fract_x
_atom_site_fract_y
_atom_site_fract_z
_atom_type_partial_charge
C1    C     C_R   0.790508 0.273780 0.269292 0.110285
C2    C     C_R   0.212191 0.272612 0.274303 0.108234
C3    C     C_R   0.308117 0.191381 0.647919 -0.188178
C4    C     C_R   0.138644 0.712035 0.322935 -0.244679
C5    C     C_R   0.864611 0.285507 0.678234 -0.194937
C6    C     C_R   0.286030 0.136110 0.323079 -0.241850
C7    C     C_R   0.689379 0.804065 0.646640 -0.187255
C8    C     C_R   0.865602 0.712593 0.678160 -0.246036
C9    C     C_R   0.195839 0.311240 0.353383 -0.187674
C10   C     C_R   0.712439 0.139249 0.677142 -0.244316
C11   C     C_R   0.285257 0.863951 0.322165 -0.196059
C12   C     C_R   0.191641 0.309327 0.648762 -0.233434
C13   C     C_R   0.725979 0.212697 0.728622 0.107893
C14   C     C_R   0.804275 0.689557 0.353218 -0.186648
C15   C     C_R   0.286715 0.866329 0.678873 -0.245441
C16   C     C_R   0.692728 0.192813 0.353483 -0.188064
C17   C     C_R   0.351036 0.807384 0.310231 -0.233319
C18   C     C_R   0.646817 0.195877 0.689455 -0.186595
C19   C     C_R   0.350884 0.690425 0.808001 -0.233803
C20   C     C_R   0.646264 0.307191 0.192793 -0.188441
C21   C     C_R   0.321448 0.133895 0.712738 -0.245662
C22   C     C_R   0.647871 0.808349 0.308374 -0.188815
C23   C     C_R   0.350766 0.310841 0.192661 -0.233319
C24   C     C_R   0.272150 0.790214 0.271216 0.106569
C25   C     C_R   0.678143 0.714472 0.864206 -0.194961
C26   C     C_R   0.676999 0.860699 0.712162 -0.244417
C27   C     C_R   0.352244 0.191487 0.307336 -0.188691
C28   C     C_R   0.648979 0.690217 0.192084 -0.233983
C29   C     C_R   0.353438 0.309471 0.804821 -0.186818
C30   C     C_R   0.679970 0.135314 0.288654 -0.245864
C31   C     C_R   0.351500 0.808798 0.692163 -0.187992
C32   C     C_R   0.678307 0.287420 0.865566 -0.245706
C33   C     C_R   0.352578 0.692824 0.190894 -0.189089
C34   C     C_R   0.287058 0.323572 0.860035 -0.239375
C35   C     C_R   0.209136 0.270481 0.727411 0.107169
C36   C     C_R   0.714891 0.678335 0.135716 -0.194856
C37   C     C_R   0.808016 0.351219 0.690134 -0.234039
C38   C     C_R   0.195730 0.646782 0.310854 -0.186532
C39   C     C_R   0.711229 0.319540 0.135371 -0.245368
C40   C     C_R   0.284996 0.677591 0.864254 -0.195701
C41   C     C_R   0.138660 0.323826 0.287970 -0.244629
C42   C     C_R   0.808056 0.647674 0.691484 -0.189028
C43   C     C_R   0.689783 0.648719 0.807650 -0.235062
C44   C     C_R   0.284998 0.322608 0.135654 -0.195882
C45   C     C_R   0.138097 0.677421 0.712484 -0.243912
C46   C     C_R   0.787751 0.728769 0.274283 0.107855
C47   C     C_R   0.807207 0.353245 0.307019 -0.187687
C48   C     C_R   0.286247 0.676613 0.135669 -0.240907
C49   C     C_R   0.691710 0.352333 0.808231 -0.188908
C50   C     C_R   0.861230 0.677248 0.287948 -0.244493
C51   C     C_R   0.135203 0.321459 0.714535 -0.194795
C52   C     C_R   0.891542 0.318049 0.351357 0.033786
C53   C     C_R   0.168721 0.659518 0.617339 0.009306
C54   C     C_R   0.683025 0.892233 0.353176 0.033149
C55   C     C_R   0.339328 0.165975 0.617916 0.008894
C56   C     C_R   0.111149 0.682393 0.353745 0.034003
C57   C     C_R   0.272316 0.792929 0.730328 0.109621
C58   C     C_R   0.892466 0.314827 0.647640 0.016241
C59   C     C_R   0.315950 0.109350 0.354281 0.032493
C60   C     C_R   0.658640 0.830650 0.616768 0.008833
C61   C     C_R   0.892191 0.682680 0.647001 0.033176
C62   C     C_R   0.169318 0.341688 0.383347 0.008327
C63   C     C_R   0.682752 0.111690 0.646276 0.034031
C64   C     C_R   0.314738 0.891701 0.352790 0.015198
C65   C     C_R   0.164798 0.340185 0.619154 0.034121
C66   C     C_R   0.830679 0.658644 0.383037 0.008805
C67   C     C_R   0.316715 0.892861 0.647557 0.033042
C68   C     C_R   0.730359 0.209462 0.274002 0.110469
C69   C     C_R   0.661081 0.167198 0.383164 0.008683
C70   C     C_R   0.380852 0.834225 0.340983 0.033012
C71   C     C_R   0.616950 0.169367 0.658582 0.008941
C72   C     C_R   0.380677 0.659632 0.834759 0.031890
C73   C     C_R   0.616686 0.339028 0.167254 0.008809
C74   C     C_R   0.352653 0.107338 0.682816 0.032815
C75   C     C_R   0.617791 0.833775 0.339504 0.008693
C76   C     C_R   0.380704 0.341190 0.165628 0.032963
C77   C     C_R   0.647701 0.685102 0.892189 0.015643
C78   C     C_R   0.646269 0.888330 0.682476 0.033704
C79   C     C_R   0.271957 0.729144 0.790785 0.106404
C80   C     C_R   0.382352 0.165844 0.338483 0.010211
C81   C     C_R   0.619277 0.659437 0.165147 0.034485
C82   C     C_R   0.383273 0.340321 0.831407 0.010555
C83   C     C_R   0.648317 0.108654 0.318177 0.033411
C84   C     C_R   0.381575 0.834183 0.660861 0.009414
C85   C     C_R   0.647145 0.317339 0.892167 0.032838
C86   C     C_R   0.382650 0.661813 0.165304 0.010607
C87   C     C_R   0.316647 0.354452 0.887656 0.033031
C88   C     C_R   0.685509 0.647702 0.107821 0.016273
C89   C     C_R   0.834914 0.380862 0.659397 0.034483
C90   C     C_R   0.725767 0.269216 0.209486 0.110468
C91   C     C_R   0.169281 0.616966 0.341661 0.008630
C92   C     C_R   0.681819 0.351397 0.108793 0.033391
C93   C     C_R   0.314451 0.646920 0.891926 0.015531
C94   C     C_R   0.111102 0.354280 0.317738 0.033584
C95   C     C_R   0.833509 0.617659 0.660331 0.008514
C96   C     C_R   0.659190 0.619024 0.834684 0.034875
C97   C     C_R   0.314608 0.352817 0.107698 0.015073
C98   C     C_R   0.110660 0.646566 0.682687 0.033652
C99   C     C_R   0.832825 0.382928 0.338743 0.009140
C100  C     C_R   0.316108 0.645527 0.108976 0.032293
C101  C     C_R   0.271833 0.272122 0.209746 0.106376
C102  C     C_R   0.660552 0.382357 0.833697 0.008628
C103  C     C_R   0.888688 0.646343 0.317592 0.033983
C104  C     C_R   0.107392 0.352166 0.685245 0.016268
C105  C     C_R   0.875336 0.365398 0.361499 0.061982
C106  C     C_R   0.126023 0.637189 0.634868 0.061783
C107  C     C_R   0.635233 0.876140 0.362368 0.062331
C108  C     C_R   0.362040 0.123522 0.635218 0.061737
C109  C     C_R   0.126494 0.634606 0.363474 0.060890
C110  C     C_R   0.877133 0.362812 0.637384 0.055848
C111  C     C_R   0.364422 0.124210 0.362305 0.062285
C112  C     C_R   0.211651 0.729083 0.726431 0.107667
C113  C     C_R   0.728811 0.727349 0.790206 0.107269
C114  C     C_R   0.636704 0.873289 0.634513 0.060833
C115  C     C_R   0.875999 0.635029 0.637631 0.062290
C116  C     C_R   0.126474 0.363618 0.365672 0.061504
C117  C     C_R   0.634742 0.126763 0.636618 0.060864
C118  C     C_R   0.362839 0.876378 0.363014 0.058158
C119  C     C_R   0.122683 0.362378 0.637249 0.056008
C120  C     C_R   0.873391 0.636659 0.365397 0.060887
C121  C     C_R   0.364329 0.876641 0.638107 0.062646
C122  C     C_R   0.638293 0.124775 0.365579 0.061102
C123  C     C_R   0.362628 0.637143 0.876748 0.058268
C124  C     C_R   0.727781 0.729236 0.209631 0.106986
C125  C     C_R   0.634412 0.361736 0.124921 0.062772
C126  C     C_R   0.362758 0.362946 0.123161 0.058096
C127  C     C_R   0.637380 0.637071 0.876947 0.055611
C128  C     C_R   0.637395 0.637410 0.123021 0.055932
C129  C     C_R   0.365100 0.363139 0.873426 0.062336
C130  C     C_R   0.637803 0.364993 0.876086 0.062363
C131  C     C_R   0.364621 0.637777 0.123788 0.063805
C132  C     C_R   0.822667 0.305975 0.297390 0.096388
C133  C     C_R   0.180166 0.699598 0.694825 0.097308
C134  C     C_R   0.695424 0.823871 0.299421 0.099282
C135  C     C_R   0.273971 0.271140 0.787217 0.108281
C136  C     C_R   0.298958 0.175772 0.695277 0.098503
C137  C     C_R   0.180764 0.694243 0.301198 0.097682
C138  C     C_R   0.822415 0.303515 0.699492 0.098334
C139  C     C_R   0.304160 0.176979 0.299324 0.098478
C140  C     C_R   0.698849 0.818725 0.694276 0.097657
C141  C     C_R   0.823678 0.695087 0.700617 0.099355
C142  C     C_R   0.180868 0.302032 0.305761 0.098352
C143  C     C_R   0.694498 0.181181 0.699032 0.097642
C144  C     C_R   0.303221 0.821829 0.300877 0.099366
C145  C     C_R   0.177305 0.300041 0.696485 0.098107
C146  C     C_R   0.729708 0.273230 0.792302 0.109443
C147  C     C_R   0.819187 0.699153 0.305736 0.097659
C148  C     C_R   0.304119 0.824434 0.701398 0.098586
C149  C     C_R   0.702246 0.177421 0.306166 0.096425
C150  C     C_R   0.303018 0.699372 0.822320 0.099668
C151  C     C_R   0.693601 0.297376 0.177409 0.096994
C152  C     C_R   0.302894 0.301621 0.178101 0.099040
C153  C     C_R   0.699196 0.696467 0.821968 0.098265
C154  C     C_R   0.696814 0.699606 0.177818 0.098363
C155  C     C_R   0.305405 0.300738 0.818811 0.096880
C156  C     C_R   0.700805 0.304916 0.823739 0.099204
C157  C     C_R   0.272792 0.729298 0.208053 0.110337
C158  C     C_R   0.304449 0.700533 0.176439 0.098790
C159  C     C_R   0.904260 0.394875 0.604537 0.051681
C160  C     C_R   0.098690 0.603200 0.396385 0.045608
C161  C     C_R   0.603728 0.901192 0.603105 0.045289
C162  C     C_R   0.396188 0.097379 0.395694 0.046599
C163  C     C_R   0.098417 0.604020 0.603363 0.044271
C164  C     C_R   0.902152 0.396686 0.395435 0.044303
C165  C     C_R   0.395566 0.097050 0.603620 0.046195
C166  C     C_R   0.603576 0.902670 0.395796 0.044282
C167  C     C_R   0.901194 0.603661 0.396825 0.045378
C168  C     C_R   0.772640 0.231817 0.291440 -0.232486
C169  C     C_R   0.095610 0.395327 0.605195 0.051675
C170  C     C_R   0.604424 0.097955 0.396837 0.045373
C171  C     C_R   0.396054 0.903096 0.604536 0.044802
C172  C     C_R   0.098740 0.396447 0.397063 0.043891
C173  C     C_R   0.902568 0.603445 0.604193 0.044334
C174  C     C_R   0.395039 0.903571 0.395785 0.051265
C175  C     C_R   0.603262 0.098852 0.603653 0.045537
C176  C     C_R   0.604561 0.605024 0.904159 0.050078
C177  C     C_R   0.394959 0.395620 0.095993 0.051023
C178  C     C_R   0.603187 0.395648 0.098073 0.042346
C179  C     C_R   0.231477 0.772289 0.708367 -0.231317
C180  C     C_R   0.394866 0.604338 0.903866 0.049304
C181  C     C_R   0.396286 0.604380 0.097101 0.043406
C182  C     C_R   0.604301 0.396564 0.902636 0.043883
C183  C     C_R   0.396571 0.396134 0.901419 0.044662
C184  C     C_R   0.605250 0.604545 0.095830 0.051213
C185  C     C_R   0.767866 0.771725 0.292590 -0.231794
C186  C     C_R   0.227066 0.227021 0.708847 -0.236822
C187  C     C_R   0.231620 0.767922 0.292180 -0.223727
C188  C     C_R   0.727176 0.792448 0.270562 0.109491
C189  C     C_R   0.768309 0.232094 0.708131 -0.223487
C190  C     C_R   0.231954 0.229503 0.292517 -0.232036
C191  C     C_R   0.771472 0.767381 0.707493 -0.231538
C192  C     C_R   0.290767 0.772307 0.227795 -0.236012
C193  C     C_R   0.707667 0.232585 0.771571 -0.231553
C194  C     C_R   0.290581 0.772781 0.773054 -0.236681
C195  C     C_R   0.708145 0.227224 0.231973 -0.232853
C196  C     C_R   0.292188 0.228061 0.767501 -0.230294
C197  C     C_R   0.709081 0.772618 0.227621 -0.236680
C198  C     C_R   0.290329 0.228531 0.227574 -0.235967
C199  C     C_R   0.270060 0.207216 0.726949 0.109418
C200  C     C_R   0.707788 0.767804 0.767896 -0.224142
C201  C     C_R   0.231592 0.291587 0.767798 -0.223338
C202  C     C_R   0.768342 0.708275 0.231962 -0.223371
C203  C     C_R   0.772672 0.291301 0.772486 -0.236745
C204  C     C_R   0.232100 0.707308 0.228743 -0.232047
C205  C     C_R   0.768028 0.291218 0.227184 -0.232692
C206  C     C_R   0.231265 0.708246 0.768487 -0.223145
C207  C     C_R   0.231540 0.293257 0.232111 -0.223915
C208  C     C_R   0.772312 0.708714 0.772308 -0.236632
C209  C     C_R   0.921150 0.384822 0.558742 -0.143185
C210  C     C_R   0.212195 0.725655 0.271647 0.108273
C211  C     C_R   0.080238 0.614473 0.441448 -0.112930
C212  C     C_R   0.614626 0.920121 0.558252 -0.145577
C213  C     C_R   0.385230 0.079562 0.441124 -0.119153
C214  C     C_R   0.079650 0.614757 0.558363 -0.147110
C215  C     C_R   0.920327 0.385310 0.440786 -0.105931
C216  C     C_R   0.384951 0.078854 0.558450 -0.145782
C217  C     C_R   0.614788 0.920582 0.441162 -0.114606
C218  C     C_R   0.920132 0.614550 0.441735 -0.145653
C219  C     C_R   0.078424 0.384862 0.559403 -0.117793
C220  C     C_R   0.614982 0.079321 0.441825 -0.145727
C221  C     C_R   0.790647 0.272616 0.729101 0.107082
C222  C     C_R   0.384975 0.920866 0.559091 -0.106502
C223  C     C_R   0.079927 0.385495 0.441931 -0.139140
C224  C     C_R   0.920506 0.614668 0.558888 -0.114679
C225  C     C_R   0.384905 0.920767 0.441440 -0.140333
C226  C     C_R   0.614530 0.080314 0.558597 -0.113520
C227  C     C_R   0.558385 0.920949 0.385115 -0.139543
C228  C     C_R   0.441036 0.079258 0.614788 -0.114580
C229  C     C_R   0.558717 0.615098 0.921078 -0.137812
C230  C     C_R   0.440659 0.384966 0.078719 -0.112644
C231  C     C_R   0.558329 0.079891 0.614549 -0.145915
C232  C     C_R   0.272453 0.208711 0.270518 0.110224
C233  C     C_R   0.440723 0.921065 0.385084 -0.112537
C234  C     C_R   0.558082 0.385180 0.079445 -0.139740
C235  C     C_R   0.440634 0.615044 0.921319 -0.105316
C236  C     C_R   0.441370 0.921245 0.615066 -0.147101
C237  C     C_R   0.558987 0.079792 0.385415 -0.113443
C238  C     C_R   0.441513 0.614971 0.078854 -0.144616
C239  C     C_R   0.558908 0.385311 0.920557 -0.113284
C240  C     C_R   0.441310 0.078976 0.385049 -0.150561
C241  C     C_R   0.558601 0.919704 0.614398 -0.112615
C242  C     C_R   0.441589 0.385347 0.920319 -0.150993
C243  C     C_R   0.728395 0.787210 0.725706 0.108107
C244  C     C_R   0.559416 0.615075 0.078580 -0.116334
C245  C     C_R   0.384780 0.558576 0.920988 -0.139521
C246  C     C_R   0.614713 0.440904 0.079784 -0.105958
C247  C     C_R   0.920862 0.558345 0.614835 -0.139269
C248  C     C_R   0.080198 0.441496 0.385654 -0.113509
C249  C     C_R   0.615275 0.558751 0.078892 -0.142733
C250  C     C_R   0.385364 0.441250 0.919887 -0.109599
C251  C     C_R   0.079773 0.558321 0.385440 -0.146083
C252  C     C_R   0.921478 0.440643 0.615073 -0.117721
C253  C     C_R   0.614939 0.441698 0.920914 -0.139110
C254  C     C_R   0.792211 0.726775 0.729474 0.109298
C255  C     C_R   0.385173 0.558954 0.079279 -0.111194
C256  C     C_R   0.078759 0.441146 0.615237 -0.143093
C257  C     C_R   0.919706 0.558597 0.385531 -0.112849
C258  C     C_R   0.384875 0.441358 0.078926 -0.139091
C259  C     C_R   0.615129 0.559311 0.921413 -0.117655
C260  C     C_R   0.920706 0.441729 0.385037 -0.146732
C261  C     C_R   0.080003 0.558815 0.614601 -0.104900
C262  C     C_R   0.864866 0.288515 0.319624 -0.245476
C263  C     C_R   0.195088 0.690385 0.647302 -0.186227
C264  C     C_R   0.713001 0.865672 0.322039 -0.245987
H1    H     H_    0.787991 0.220075 0.325653 0.119000
H2    H     H_    0.673019 0.220180 0.785363 0.119307
H3    H     H_    0.367523 0.293438 0.771967 0.130742
H4    H     H_    0.686796 0.123414 0.251952 0.124097
H5    H     H_    0.364749 0.775430 0.708002 0.123248
H6    H     H_    0.684814 0.250615 0.877436 0.124082
H7    H     H_    0.366511 0.709610 0.223552 0.122135
H8    H     H_    0.249803 0.317364 0.870824 0.122930
H9    H     H_    0.751801 0.685684 0.124466 0.126401
H10   H     H_    0.774846 0.365208 0.705692 0.120376
H11   H     H_    0.229176 0.633179 0.295531 0.131324
H12   H     H_    0.747954 0.312487 0.123478 0.123870
H13   H     H_    0.323581 0.787478 0.788747 0.121107
H14   H     H_    0.248071 0.684587 0.875565 0.125365
H15   H     H_    0.127057 0.317100 0.251076 0.123047
H16   H     H_    0.774671 0.634336 0.707318 0.122720
H17   H     H_    0.705214 0.634725 0.774469 0.120467
H18   H     H_    0.248090 0.315310 0.124150 0.125558
H19   H     H_    0.126551 0.684098 0.749322 0.123074
H20   H     H_    0.773677 0.366605 0.291434 0.131742
H21   H     H_    0.248870 0.681930 0.124682 0.123645
H22   H     H_    0.707580 0.365673 0.774932 0.122714
H23   H     H_    0.872758 0.684200 0.251133 0.123117
H24   H     H_    0.673781 0.212017 0.220249 0.118768
H25   H     H_    0.123911 0.314198 0.751367 0.126477
H26   H     H_    0.926884 0.268688 0.392111 0.095463
H27   H     H_    0.958990 0.290567 0.344854 0.106335
H28   H     H_    0.163618 0.663399 0.544152 0.101721
H29   H     H_    0.190515 0.612283 0.565600 0.118342
H30   H     H_    0.732029 0.927359 0.394768 0.095301
H31   H     H_    0.711069 0.959499 0.347039 0.106639
H32   H     H_    0.335733 0.162027 0.544632 0.101267
H33   H     H_    0.386702 0.189134 0.566712 0.116185
H34   H     H_    0.075777 0.731593 0.394357 0.095351
H35   H     H_    0.326807 0.214197 0.779964 0.119111
H36   H     H_    0.044182 0.710860 0.346092 0.106232
H37   H     H_    0.964819 0.320267 0.635274 0.106333
H38   H     H_    0.932993 0.289912 0.591938 0.095211
H39   H     H_    0.267411 0.077003 0.398240 0.095380
H40   H     H_    0.284494 0.043548 0.350172 0.107167
H41   H     H_    0.662463 0.836059 0.543628 0.101879
H42   H     H_    0.611012 0.809380 0.564770 0.116589
H43   H     H_    0.927460 0.731552 0.605629 0.095272
H44   H     H_    0.959645 0.710584 0.653378 0.106721
H45   H     H_    0.164173 0.337367 0.456462 0.101016
H46   H     H_    0.676172 0.787345 0.211875 0.121057
H47   H     H_    0.190820 0.388853 0.435503 0.118511
H48   H     H_    0.732115 0.076662 0.605527 0.095480
H49   H     H_    0.711644 0.045022 0.653730 0.106418
H50   H     H_    0.320806 0.963662 0.365571 0.114061
H51   H     H_    0.289531 0.932197 0.408335 0.095059
H52   H     H_    0.216315 0.364569 0.573236 0.110904
H53   H     H_    0.183314 0.317346 0.552299 0.095268
H54   H     H_    0.835838 0.662122 0.456235 0.101864
H55   H     H_    0.808989 0.610985 0.434595 0.116821
H56   H     H_    0.267755 0.928165 0.606194 0.095496
H57   H     H_    0.322998 0.213635 0.211722 0.121288
H58   H     H_    0.289206 0.960200 0.653785 0.106830
H59   H     H_    0.663784 0.162900 0.456458 0.102320
H60   H     H_    0.613248 0.190161 0.433867 0.115948
H61   H     H_    0.426921 0.782882 0.365485 0.110058
H62   H     H_    0.447773 0.815556 0.318139 0.095043
H63   H     H_    0.543615 0.164005 0.662126 0.101975
H64   H     H_    0.565043 0.190724 0.610934 0.116339
H65   H     H_    0.426789 0.635795 0.783354 0.111255
H66   H     H_    0.447609 0.682994 0.816367 0.099102
H67   H     H_    0.543206 0.336654 0.162914 0.101349
H68   H     H_    0.672360 0.780039 0.779540 0.120856
H69   H     H_    0.566059 0.387009 0.190200 0.119787
H70   H     H_    0.394124 0.072051 0.731683 0.095958
H71   H     H_    0.346248 0.040021 0.710541 0.106997
H72   H     H_    0.544376 0.837923 0.335550 0.100661
H73   H     H_    0.566117 0.810748 0.386475 0.117831
H74   H     H_    0.426918 0.365909 0.216924 0.111008
H75   H     H_    0.447528 0.318157 0.184863 0.096053
H76   H     H_    0.635841 0.679694 0.964464 0.106253
H77   H     H_    0.592128 0.709896 0.933045 0.095118
H78   H     H_    0.605379 0.923435 0.731641 0.095546
H79   H     H_    0.219907 0.326977 0.779945 0.121018
H80   H     H_    0.653877 0.954974 0.711438 0.106501
H81   H     H_    0.455621 0.160553 0.333409 0.100951
H82   H     H_    0.435392 0.188263 0.384542 0.116396
H83   H     H_    0.573207 0.634860 0.216404 0.110384
H84   H     H_    0.552286 0.682189 0.183705 0.094904
H85   H     H_    0.456502 0.335612 0.837610 0.101428
H86   H     H_    0.436138 0.387047 0.810406 0.119215
H87   H     H_    0.607366 0.073381 0.268792 0.095856
H88   H     H_    0.654868 0.041386 0.290554 0.106800
H89   H     H_    0.455053 0.838070 0.664259 0.101354
H90   H     H_    0.780605 0.672933 0.220252 0.121196
H91   H     H_    0.432692 0.810993 0.613536 0.117749
H92   H     H_    0.605653 0.268469 0.927340 0.095874
H93   H     H_    0.653570 0.289450 0.959429 0.106524
H94   H     H_    0.455886 0.667521 0.159894 0.099712
H95   H     H_    0.435915 0.616198 0.187716 0.120425
H96   H     H_    0.267512 0.397033 0.920701 0.096174
H97   H     H_    0.285462 0.348548 0.953331 0.106446
H98   H     H_    0.680113 0.635341 0.035595 0.106170
H99   H     H_    0.710449 0.592005 0.067308 0.095270
H100  H     H_    0.783419 0.426758 0.634820 0.110067
H101  H     H_    0.788424 0.324163 0.787227 0.120939
H102  H     H_    0.816232 0.447693 0.682187 0.094561
H103  H     H_    0.164181 0.543772 0.338196 0.102250
H104  H     H_    0.190916 0.565424 0.389402 0.116943
H105  H     H_    0.731538 0.391908 0.073649 0.095840
H106  H     H_    0.709325 0.344741 0.041508 0.106491
H107  H     H_    0.320365 0.633344 0.963781 0.113488
H108  H     H_    0.288984 0.590886 0.931822 0.094792
H109  H     H_    0.075486 0.395199 0.268674 0.095514
H110  H     H_    0.044114 0.346667 0.288969 0.106079
H111  H     H_    0.837567 0.544406 0.664072 0.100709
H112  H     H_    0.218947 0.786320 0.673877 0.119308
H113  H     H_    0.219679 0.672684 0.214981 0.118874
H114  H     H_    0.810380 0.566174 0.613141 0.117930
H115  H     H_    0.634290 0.572979 0.783472 0.109904
H116  H     H_    0.682005 0.552227 0.815911 0.094670
H117  H     H_    0.320623 0.364699 0.035554 0.113384
H118  H     H_    0.289799 0.408127 0.066341 0.094840
H119  H     H_    0.075373 0.605448 0.731729 0.095835
H120  H     H_    0.043671 0.653566 0.711106 0.106335
H121  H     H_    0.837021 0.456237 0.336270 0.102153
H122  H     H_    0.809740 0.433526 0.386610 0.117886
H123  H     H_    0.267500 0.601258 0.076844 0.095765
H124  H     H_    0.779904 0.325370 0.211872 0.119054
H125  H     H_    0.284443 0.649400 0.043237 0.107033
H126  H     H_    0.664414 0.455606 0.837860 0.100670
H127  H     H_    0.613323 0.433851 0.810720 0.118530
H128  H     H_    0.923894 0.605617 0.268370 0.095611
H129  H     H_    0.955634 0.653775 0.289090 0.106270
H130  H     H_    0.035080 0.364899 0.679859 0.106242
H131  H     H_    0.067130 0.408015 0.710293 0.095304
H132  H     H_    0.219038 0.672742 0.779967 0.121296
H133  H     H_    0.219426 0.328727 0.220499 0.121169
H134  H     H_    0.787079 0.675890 0.788025 0.121034
H135  H     H_    0.919301 0.350618 0.540119 0.089018
H136  H     H_    0.081633 0.649390 0.458910 0.094755
H137  H     H_    0.649858 0.920358 0.541292 0.091909
H138  H     H_    0.350326 0.080774 0.458691 0.095792
H139  H     H_    0.079209 0.649966 0.541391 0.092105
H140  H     H_    0.780272 0.785515 0.327218 0.119190
H141  H     H_    0.919395 0.350173 0.457885 0.094812
H142  H     H_    0.349642 0.078058 0.541431 0.091590
H143  H     H_    0.649877 0.919630 0.458607 0.095134
H144  H     H_    0.920419 0.649716 0.458745 0.091886
H145  H     H_    0.078626 0.349751 0.542242 0.091181
H146  H     H_    0.650278 0.078595 0.458860 0.091988
H147  H     H_    0.349785 0.920165 0.541849 0.094802
H148  H     H_    0.079815 0.350360 0.459072 0.091278
H149  H     H_    0.919507 0.649674 0.541517 0.095118
H150  H     H_    0.350644 0.918873 0.460006 0.088853
H151  H     H_    0.211265 0.212206 0.676032 0.121020
H152  H     H_    0.649505 0.081740 0.541177 0.095004
H153  H     H_    0.541288 0.921614 0.349902 0.091690
H154  H     H_    0.458463 0.080153 0.649831 0.095035
H155  H     H_    0.540039 0.649262 0.919137 0.088785
H156  H     H_    0.457711 0.349811 0.079122 0.091066
H157  H     H_    0.541368 0.079637 0.649721 0.092155
H158  H     H_    0.457829 0.920640 0.349966 0.091480
H159  H     H_    0.540840 0.350056 0.078837 0.091778
H160  H     H_    0.457643 0.650291 0.921187 0.090548
H161  H     H_    0.458357 0.922137 0.650325 0.092294
H162  H     H_    0.219398 0.779609 0.327540 0.121120
H163  H     H_    0.541579 0.080935 0.350364 0.094805
H164  H     H_    0.458569 0.650177 0.077972 0.091785
H165  H     H_    0.541499 0.350279 0.919576 0.094922
H166  H     H_    0.458128 0.078122 0.349816 0.092587
H167  H     H_    0.541106 0.918243 0.649277 0.094866
H168  H     H_    0.458558 0.350172 0.920778 0.092450
H169  H     H_    0.542226 0.650169 0.078923 0.091056
H170  H     H_    0.350445 0.539966 0.919283 0.088281
H171  H     H_    0.649964 0.457986 0.080757 0.094928
H172  H     H_    0.921462 0.541253 0.649996 0.091338
H173  H     H_    0.780008 0.219821 0.672793 0.121140
H174  H     H_    0.081518 0.458988 0.350726 0.095080
H175  H     H_    0.649541 0.540147 0.080740 0.088894
H176  H     H_    0.350333 0.458569 0.918616 0.095617
H177  H     H_    0.079424 0.541401 0.350230 0.091931
H178  H     H_    0.921174 0.457836 0.650170 0.091260
H179  H     H_    0.650182 0.458834 0.921543 0.091139
H180  H     H_    0.350099 0.541550 0.080179 0.095907
H181  H     H_    0.080522 0.459673 0.649491 0.088826
H182  H     H_    0.918300 0.541168 0.350596 0.094806
H183  H     H_    0.350612 0.459939 0.080678 0.088231
H184  H     H_    0.219605 0.215619 0.327075 0.118583
H185  H     H_    0.650294 0.542144 0.921050 0.091229
H186  H     H_    0.921444 0.458760 0.349859 0.092213
H187  H     H_    0.081129 0.541497 0.649620 0.095061
H188  H     H_    0.876807 0.251841 0.312721 0.123746
H189  H     H_    0.228479 0.706069 0.633772 0.131344
H190  H     H_    0.749914 0.877549 0.315647 0.123940
H191  H     H_    0.292275 0.224728 0.634625 0.123316
H192  H     H_    0.127090 0.748839 0.315924 0.123013
H193  H     H_    0.875964 0.248699 0.685562 0.126400
H194  H     H_    0.248671 0.125111 0.317553 0.123766
H195  H     H_    0.785353 0.779790 0.672958 0.119221
H196  H     H_    0.704791 0.770751 0.632925 0.130965
H197  H     H_    0.877547 0.749400 0.684690 0.123979
H198  H     H_    0.229313 0.295803 0.367028 0.130527
H199  H     H_    0.749406 0.127885 0.684078 0.123101
H200  H     H_    0.248372 0.875337 0.314820 0.125464
H201  H     H_    0.224747 0.293651 0.634747 0.120710
H202  H     H_    0.770888 0.704999 0.366835 0.131007
H203  H     H_    0.249918 0.878280 0.685451 0.124045
H204  H     H_    0.708352 0.226260 0.366892 0.131646
H205  H     H_    0.364977 0.774258 0.294630 0.120430
H206  H     H_    0.323558 0.788176 0.213000 0.120950
H207  H     H_    0.633074 0.229173 0.704881 0.131022
H208  H     H_    0.364894 0.706371 0.775015 0.120441
H209  H     H_    0.632772 0.291653 0.226188 0.130859
H210  H     H_    0.314911 0.121964 0.749513 0.124534
H211  H     H_    0.634469 0.775066 0.292416 0.122720
H212  H     H_    0.364672 0.295410 0.225992 0.120876
H213  H     H_    0.685545 0.751301 0.875512 0.126587
H214  H     H_    0.683873 0.872049 0.749083 0.123222
H215  H     H_    0.366097 0.224234 0.290700 0.122747
H216  H     H_    0.634934 0.705785 0.225178 0.120385
N1    N     N_R   0.946030 0.423710 0.543310 -0.040522
N2    N     N_R   0.053970 0.423710 0.543310 -0.042010
N3    N     N_R   0.576290 0.053970 0.456690 -0.039417
N4    N     N_R   0.423710 0.946030 0.543310 -0.041863
N5    N     N_R   0.053970 0.423710 0.456690 -0.038930
N6    N     N_R   0.946030 0.576290 0.543310 -0.041367
N7    N     N_R   0.423710 0.946030 0.456690 -0.040541
N8    N     N_R   0.576290 0.053970 0.543310 -0.041928
N9    N     N_R   0.543310 0.946030 0.423710 -0.039021
N10   N     N_R   0.456690 0.053970 0.576290 -0.041417
N11   N     N_R   0.543310 0.576290 0.946030 -0.039903
N12   N     N_R   0.053970 0.576290 0.456690 -0.041455
N13   N     N_R   0.456690 0.423710 0.053970 -0.041629
N14   N     N_R   0.543310 0.053970 0.576290 -0.039502
N15   N     N_R   0.456690 0.946030 0.423710 -0.042259
N16   N     N_R   0.543310 0.423710 0.053970 -0.038671
N17   N     N_R   0.456690 0.576290 0.946030 -0.041853
N18   N     N_R   0.456690 0.946030 0.576290 -0.039149
N19   N     N_R   0.543310 0.053970 0.423710 -0.041536
N20   N     N_R   0.456690 0.576290 0.053970 -0.038593
N21   N     N_R   0.543310 0.423710 0.946030 -0.040867
N22   N     N_R   0.456690 0.053970 0.423710 -0.039539
N23   N     N_R   0.576290 0.946030 0.543310 -0.039378
N24   N     N_R   0.543310 0.946030 0.576290 -0.041609
N25   N     N_R   0.456690 0.423710 0.946030 -0.038954
N26   N     N_R   0.543310 0.576290 0.053970 -0.041594
N27   N     N_R   0.423710 0.543310 0.946030 -0.040052
N28   N     N_R   0.576290 0.456690 0.053970 -0.041731
N29   N     N_R   0.946030 0.543310 0.576290 -0.038906
N30   N     N_R   0.053970 0.456690 0.423710 -0.041502
N31   N     N_R   0.576290 0.543310 0.053970 -0.040265
N32   N     N_R   0.423710 0.456690 0.946030 -0.041927
N33   N     N_R   0.053970 0.543310 0.423710 -0.039170
N34   N     N_R   0.423710 0.053970 0.456690 -0.041840
N35   N     N_R   0.946030 0.456690 0.576290 -0.042069
N36   N     N_R   0.576290 0.456690 0.946030 -0.038566
N37   N     N_R   0.423710 0.543310 0.053970 -0.041700
N38   N     N_R   0.053970 0.456690 0.576290 -0.040549
N39   N     N_R   0.946030 0.543310 0.423710 -0.041530
N40   N     N_R   0.423710 0.456690 0.053970 -0.040035
N41   N     N_R   0.576290 0.543310 0.946030 -0.041876
N42   N     N_R   0.946030 0.456690 0.423710 -0.039179
N43   N     N_R   0.053970 0.543310 0.576290 -0.042004
N44   N     N_3   0.935343 0.300102 0.372756 -0.219094
N45   N     N_R   0.053970 0.576290 0.543310 -0.039131
N46   N     N_3   0.187581 0.649727 0.570060 -0.216258
N47   N     N_3   0.700914 0.935871 0.374809 -0.218749
N48   N     N_3   0.349180 0.185653 0.570918 -0.218309
N49   N     N_3   0.067235 0.700590 0.374389 -0.218794
N50   N     N_3   0.936815 0.295444 0.629085 -0.216596
N51   N     N_3   0.297156 0.066821 0.377229 -0.224712
N52   N     N_3   0.648579 0.812098 0.569338 -0.216628
N53   N     N_3   0.935956 0.700492 0.625523 -0.218802
N54   N     N_3   0.188097 0.351407 0.430809 -0.218595
N55   N     N_3   0.701145 0.067978 0.625502 -0.218885
N56   N     N_R   0.946030 0.423710 0.456690 -0.041903
N57   N     N_3   0.295489 0.936052 0.371277 -0.221695
N58   N     N_3   0.181283 0.350154 0.570997 -0.216144
N59   N     N_3   0.811867 0.648473 0.430290 -0.216550
N60   N     N_3   0.299038 0.936569 0.625980 -0.219111
N61   N     N_3   0.650802 0.186683 0.430093 -0.216357
N62   N     N_3   0.429142 0.817761 0.350960 -0.216514
N63   N     N_3   0.569484 0.187961 0.648424 -0.216504
N64   N     N_3   0.428981 0.650054 0.818331 -0.212702
N65   N     N_3   0.569715 0.349526 0.186709 -0.218665
N66   N     N_3   0.374172 0.063632 0.700561 -0.218618
N67   N     N_R   0.423710 0.053970 0.543310 -0.039250
N68   N     N_3   0.570551 0.814225 0.349069 -0.220293
N69   N     N_3   0.429048 0.351055 0.182211 -0.216262
N70   N     N_3   0.629395 0.704474 0.936581 -0.216422
N71   N     N_3   0.625540 0.932083 0.700826 -0.218882
N72   N     N_3   0.430098 0.184654 0.347235 -0.218448
N73   N     N_3   0.570991 0.649396 0.181523 -0.215643
N74   N     N_3   0.431088 0.349652 0.813339 -0.216543
N75   N     N_3   0.626890 0.064945 0.300168 -0.218468
N76   N     N_3   0.428581 0.814472 0.650972 -0.218231
N77   N     N_3   0.625640 0.299534 0.935833 -0.218892
N78   N     N_R   0.576290 0.946030 0.456690 -0.041530
N79   N     N_3   0.430472 0.653452 0.184049 -0.220521
N80   N     N_3   0.297602 0.376239 0.930561 -0.225102
N81   N     N_3   0.704959 0.629149 0.063568 -0.216610
N82   N     N_3   0.818398 0.429011 0.649380 -0.216005
N83   N     N_3   0.188109 0.569717 0.351901 -0.216227
N84   N     N_3   0.699936 0.372694 0.065147 -0.219147
N85   N     N_3   0.295069 0.627906 0.936056 -0.221793
N86   N     N_3   0.067075 0.374943 0.299513 -0.218826
N87   N     N_3   0.813855 0.570563 0.650570 -0.220322
N88   N     N_3   0.649112 0.570821 0.818279 -0.215626
N89   N     N_R   0.946030 0.576290 0.456690 -0.039192
N90   N     N_3   0.295434 0.370974 0.063024 -0.221429
N91   N     N_3   0.066792 0.625498 0.700775 -0.219376
N92   N     N_3   0.813233 0.429792 0.349134 -0.216305
N93   N     N_3   0.297201 0.622435 0.066543 -0.225540
N94   N     N_3   0.650832 0.429456 0.814164 -0.220309
N95   N     N_3   0.932527 0.625556 0.299372 -0.218843
N96   N     N_3   0.063143 0.370902 0.704681 -0.216589
Ni1   Ni    Ni4+2 0.000000 0.424390 0.500000 0.206404
Ni2   Ni    Ni4+2 0.575610 0.500000 0.000000 0.207545
Ni3   Ni    Ni4+2 1.000000 0.500000 0.575610 0.206386
Ni4   Ni    Ni4+2 0.000000 0.500000 0.424390 0.213599
Ni5   Ni    Ni4+2 1.000000 0.575610 0.500000 0.213601
Ni6   Ni    Ni4+2 0.575610 0.000000 0.500000 0.213094
Ni7   Ni    Ni4+2 0.424390 0.000000 0.500000 0.208916
Ni8   Ni    Ni4+2 0.500000 0.000000 0.424390 0.209852
Ni9   Ni    Ni4+2 0.500000 0.000000 0.575610 0.213107
Ni10  Ni    Ni4+2 0.500000 0.575610 0.000000 0.204370
Ni11  Ni    Ni4+2 0.500000 0.424390 0.000000 0.211496
Ni12  Ni    Ni4+2 0.424390 0.500000 0.000000 0.206391

loop_
_geom_bond_atom_site_label_1
_geom_bond_atom_site_label_2
_ccdc_geom_bond_type
C50   C147  A    
C39   H12   S    
C75   C107  A    
C157  C158  S    
C45   H19   S    
C224  N6    A    
C7    C60   A    
C10   C63   A    
C222  N4    A    
C40   C93   A    
C249  H175  S    
C250  H176  S    
C34   C155  A    
H64   N63   S    
C79   C194  A    
C54   C107  A    
H26   N44   S    
H69   N65   S    
C97   N90   S    
C51   C145  A    
C127  C176  S    
C19   C150  A    
C64   C118  A    
H43   N53   S    
C35   C145  S    
C190  H184  S    
C68   C149  S    
C101  C207  A    
C178  C246  A    
C53   C106  A    
N9    Ni8   S    
C90   C195  A    
N5    Ni1   S    
H62   N62   S    
C61   C115  A    
C59   C111  A    
H70   N66   S    
C16   C149  A    
C183  C242  A    
H30   N47   S    
C167  C218  A    
C161  C241  A    
C239  N21   A    
C255  H180  S    
C129  C183  S    
N67   Ni7   S    
C76   N69   S    
H96   N80   S    
C4    C56   A    
N13   N40   A    
C169  C256  A    
C34   H8    S    
C78   N71   S    
C226  H152  S    
C224  H149  S    
C189  C221  A    
C219  N2    A    
C48   C100  A    
H122  N92   S    
C247  H172  S    
C42   C95   A    
C113  C208  A    
C2    C190  A    
N13   Ni11  S    
C258  H183  S    
C86   N79   S    
C49   C102  A    
H102  N82   S    
C35   C201  A    
C114  C161  S    
C62   N54   S    
C51   C104  A    
C48   C158  A    
C124  C197  A    
C165  C228  A    
C223  N5    A    
C96   C127  A    
C206  H132  S    
C241  N24   A    
C48   H21   S    
C165  C216  A    
C189  H173  S    
C41   C94   A    
C163  C261  A    
C43   C96   A    
C105  C164  S    
C40   C150  A    
C176  C259  A    
C157  C204  A    
C106  C163  S    
H86   N74   S    
C225  N7    A    
N56   Ni1   S    
N16   N28   A    
N9    N78   A    
C81   C128  A    
C248  N30   A    
C186  C199  A    
C177  C230  A    
C33   C158  A    
C19   H208  S    
C215  H141  S    
C18   C71   A    
C220  H146  S    
C58   C110  A    
H87   N75   S    
C80   N72   S    
C255  N37   A    
C97   C126  A    
C70   N62   S    
H74   N69   S    
C59   N51   S    
C3    H191  S    
H127  N94   S    
C25   H213  S    
N42   Ni4   S    
H120  N91   S    
C45   C133  A    
C159  C209  A    
C20   C151  A    
C137  C210  S    
C45   C98   A    
C184  C249  A    
C245  N27   A    
C191  C243  A    
C29   C82   A    
C172  C223  A    
N10   Ni9   S    
N3    N19   A    
N24   Ni9   S    
H104  N83   S    
C17   H205  S    
C89   C110  A    
H114  N87   S    
C209  H135  S    
C20   C73   A    
C68   C195  A    
C34   C87   A    
H73   N68   S    
C31   C84   A    
N4    Ni7   S    
N30   Ni4   S    
C16   H204  S    
N4    N18   A    
H47   N54   S    
C256  H181  S    
N31   Ni2   S    
H42   N52   S    
C167  C257  A    
C227  H153  S    
C173  C224  A    
C102  C130  A    
C229  N11   A    
N36   Ni2   S    
C10   H199  S    
C7    H196  S    
C50   H23   S    
C187  H162  S    
H63   N63   S    
C60   C114  A    
C23   C76   A    
H67   N65   S    
C246  H171  S    
H126  N94   S    
C262  H188  S    
C135  C201  A    
C185  C188  A    
C244  H169  S    
H99   N81   S    
C260  H186  S    
N12   N33   A    
C26   C78   A    
C175  C226  A    
C5    C58   A    
C24   C187  A    
C141  C254  S    
C247  N29   A    
C18   C143  A    
H107  N85   S    
C174  C225  A    
C51   H25   S    
C15   C148  A    
C163  C214  A    
C11   H200  S    
H77   N70   S    
H37   N50   S    
C39   C151  A    
N40   Ni12  S    
C47   C99   A    
C213  H138  S    
N7    N15   A    
C3    C136  A    
C44   C97   A    
C6    C139  A    
N41   Ni2   S    
C60   N52   S    
C4    C137  A    
C32   C156  A    
C3    C55   A    
C113  C200  A    
C258  N40   A    
C166  C227  A    
C205  H124  S    
C82   N74   S    
C219  H145  S    
C8    C141  A    
N19   Ni8   S    
C77   C127  A    
C104  C119  A    
C117  C175  S    
H36   N49   S    
C44   H18   S    
C202  H90   S    
H111  N87   S    
C89   N82   S    
C251  N33   A    
N8    N14   A    
H34   N49   S    
H89   N76   S    
C196  C199  A    
C67   C121  A    
N43   Ni3   S    
C182  C239  A    
C208  H134  S    
H32   N48   S    
C161  C212  A    
C49   H22   S    
C191  C254  A    
C71   C117  A    
C53   N46   S    
C56   N49   S    
C178  C234  A    
C237  N19   A    
C235  H160  S    
N42   N56   A    
C84   C121  A    
C239  H165  S    
C14   C147  A    
C27   C139  A    
H78   N71   S    
C84   N76   S    
H97   N80   S    
C91   N83   S    
C12   C145  A    
C263  H189  S    
C69   N61   S    
C58   N50   S    
C256  N38   A    
C37   H10   S    
C42   H16   S    
C72   N64   S    
C46   C202  A    
C15   C67   A    
C42   C141  A    
C184  C244  A    
N18   Ni9   S    
C24   C192  A    
C246  N28   A    
N17   Ni10  S    
C82   C129  A    
H58   N60   S    
C166  C217  A    
C195  H24   S    
C244  N26   A    
C119  C169  S    
H49   N55   S    
N38   Ni3   S    
C52   C105  A    
C6    H194  S    
C37   C138  A    
C231  N14   A    
C2    C142  S    
H52   N58   S    
N6    Ni5   S    
H29   N46   S    
C238  N20   A    
C56   C109  A    
C33   H7    S    
C211  N12   A    
C132  C262  A    
H131  N96   S    
N32   Ni12  S    
C185  H140  S    
C236  N18   A    
N26   N31   A    
C74   N66   S    
C160  C211  A    
C15   H203  S    
C77   N70   S    
C27   H215  S    
C6    C59   A    
C22   H211  S    
C131  C181  S    
C240  H166  S    
C9    C142  A    
H50   N57   S    
C52   C262  A    
C228  N10   A    
C53   C263  A    
C29   C155  A    
C57   C194  A    
H80   N71   S    
C214  H139  S    
C87   C129  A    
H110  N86   S    
C183  C250  A    
H125  N93   S    
C41   C142  A    
C115  C173  S    
C43   C153  A    
C212  H137  S    
C257  H182  S    
C191  H195  S    
C217  N78   A    
C70   C118  A    
C212  N23   A    
C73   C125  A    
C176  C229  A    
C192  H206  S    
C251  H177  S    
C71   N63   S    
C120  C167  S    
H106  N84   S    
C83   C122  A    
C211  H136  S    
C68   C168  A    
C103  N95   S    
C14   H202  S    
H71   N66   S    
H100  N82   S    
H60   N61   S    
C104  N96   S    
H40   N51   S    
C50   C103  A    
C233  H158  S    
C118  C174  S    
C125  C178  S    
H28   N46   S    
C92   N84   S    
N89   Ni5   S    
H129  N95   S    
H130  N96   S    
H44   N53   S    
N11   N41   A    
H119  N91   S    
C23   C152  A    
C164  C260  A    
C259  N41   A    
C81   N73   S    
C76   C126  A    
C32   H6    S    
C103  C120  A    
H118  N90   S    
N22   Ni8   S    
C168  H1    S    
C54   N47   S    
C36   C154  A    
C236  H161  S    
H103  N83   S    
H38   N50   S    
N14   Ni9   S    
C193  H2    S    
C249  N31   A    
C26   C140  A    
C21   H210  S    
C7    C140  A    
C63   C117  A    
C196  H35   S    
C38   H11   S    
N29   Ni3   S    
H128  N95   S    
C260  N42   A    
C229  H155  S    
H105  N84   S    
C116  C172  S    
H33   N48   S    
C133  C263  A    
C30   C83   A    
N39   Ni4   S    
C242  N25   A    
C67   N60   S    
C128  C184  S    
H115  N88   S    
H27   N44   S    
H93   N77   S    
C241  H167  S    
C200  H68   S    
C180  C245  A    
N6    N29   A    
H95   N79   S    
C233  N15   A    
C40   H14   S    
C164  C215  A    
C13   C193  A    
C92   C125  A    
H48   N55   S    
C160  C251  A    
C78   C114  A    
C111  C162  S    
C242  H168  S    
C8    H197  S    
C16   C69   A    
C25   C153  A    
N33   Ni4   S    
H54   N59   S    
N25   Ni11  S    
C135  C155  S    
N28   Ni2   S    
C57   C179  A    
C94   C116  A    
C201  H79   S    
C73   N65   S    
C1    C168  A    
C38   C91   A    
C36   C88   A    
H117  N90   S    
C124  C202  A    
C41   H15   S    
C134  C188  S    
C213  N34   A    
C63   N55   S    
C46   C147  S    
C4    H192  S    
N23   N24   A    
C225  H150  S    
C65   C119  A    
C44   C152  A    
C245  H170  S    
C146  C193  A    
C207  H133  S    
N27   Ni12  S    
C79   C150  S    
C31   C148  A    
C99   N92   S    
C169  C219  A    
C170  C237  A    
C96   N88   S    
C261  N43   A    
C17   C144  A    
C72   C123  A    
C29   H3    S    
C30   H4    S    
N34   Ni7   S    
C174  C233  A    
C36   H9    S    
H121  N92   S    
N12   Ni5   S    
H109  N86   S    
C134  C264  A    
C102  N94   S    
C248  H174  S    
C90   C151  S    
C30   C149  A    
C26   H214  S    
C98   N91   S    
C218  N89   A    
C12   C65   A    
C55   C108  A    
C101  C152  S    
C100  N93   S    
C37   C89   A    
C47   C132  A    
C140  C243  S    
C54   C264  A    
N37   Ni12  S    
C157  C192  A    
C112  C206  A    
H59   N61   S    
N43   N45   A    
N26   Ni10  S    
C188  C197  A    
C24   C144  S    
C32   C85   A    
C80   C111  A    
C38   C137  A    
H116  N88   S    
H39   N51   S    
C186  H151  S    
C13   C143  S    
C46   C185  A    
C250  N32   A    
C227  N9    A    
C182  C253  A    
N78   Ni6   S    
H84   N73   S    
C74   C108  A    
C88   N81   S    
C27   C80   A    
C57   C148  S    
H83   N73   S    
C2    C207  A    
C122  C170  S    
N21   Ni11  S    
N39   N89   A    
C220  N3    A    
C83   N75   S    
C222  H147  S    
C39   C92   A    
C214  N45   A    
C108  C165  S    
C124  C154  S    
N15   Ni8   S    
C49   C156  A    
C264  H190  S    
N17   N27   A    
C112  C133  S    
C28   H216  S    
C1    C132  S    
N5    N30   A    
C100  C131  A    
H55   N59   S    
C5    C138  A    
N7    Ni7   S    
C95   N87   S    
C259  H185  S    
N45   Ni5   S    
C22   C134  A    
C25   C77   A    
C69   C122  A    
C159  C252  A    
C215  N56   A    
C35   C186  A    
C85   C130  A    
C198  C232  A    
C86   C131  A    
H76   N70   S    
C172  C248  A    
C90   C205  A    
C13   C189  A    
C203  C221  A    
C126  C177  S    
C218  H144  S    
N1    Ni1   S    
H92   N77   S    
N21   N36   A    
C136  C199  S    
H91   N76   S    
C94   N86   S    
H94   N79   S    
C23   H212  S    
C61   N53   S    
C18   H207  S    
C180  C235  A    
C95   C115  A    
C75   N68   S    
C93   C123  A    
C31   H5    S    
N20   Ni10  S    
C98   C106  A    
C216  N67   A    
C181  C255  A    
C11   C144  A    
N2    N38   A    
C21   C136  A    
C8    C61   A    
H108  N85   S    
C173  C247  A    
H61   N62   S    
C135  C196  A    
C107  C166  S    
C17   C70   A    
C43   H17   S    
C234  H159  S    
C28   C154  A    
C253  N36   A    
C19   C72   A    
C208  C254  A    
C22   C75   A    
C198  H57   S    
C226  N8    A    
C204  H113  S    
N3    Ni6   S    
C52   N44   S    
H31   N47   S    
C231  H157  S    
C170  C220  A    
C171  C236  A    
H45   N54   S    
C99   C105  A    
C175  C231  A    
C9    C62   A    
N1    N35   A    
C11   C64   A    
C130  C182  S    
C101  C198  A    
H72   N68   S    
C230  N13   A    
C55   N48   S    
C138  C221  S    
H82   N72   S    
C66   N59   S    
C216  H142  S    
C21   C74   A    
C257  N39   A    
C252  N35   A    
H88   N75   S    
C85   N77   S    
C33   C86   A    
H41   N52   S    
C62   C116  A    
C146  C203  A    
N22   N34   A    
C197  H46   S    
C162  C240  A    
C20   H209  S    
H56   N60   S    
H98   N81   S    
C187  C210  A    
H66   N64   S    
C253  H179  S    
C14   C66   A    
N10   N67   A    
C252  H178  S    
C200  C243  A    
C139  C232  S    
N23   Ni6   S    
C194  H13   S    
C112  C179  A    
C121  C171  S    
C12   H201  S    
C9    H198  S    
H123  N93   S    
C181  C238  A    
C5    H193  S    
H85   N74   S    
C203  H101  S    
C217  H143  S    
C171  C222  A    
C1    C205  A    
C230  H156  S    
C177  C258  A    
C235  N17   A    
C228  H154  S    
C28   C81   A    
N8    Ni6   S    
C64   N57   S    
N35   Ni3   S    
C261  H187  S    
C237  H163  S    
C113  C153  S    
C123  C180  S    
C238  H164  S    
H81   N72   S    
C65   N58   S    
C79   C206  A    
N25   N32   A    
H53   N58   S    
C91   C109  A    
C179  H112  S    
C88   C128  A    
C240  N22   A    
C87   N80   S    
H75   N69   S    
H65   N64   S    
C209  N1    A    
C190  C232  A    
C10   C143  A    
H51   N57   S    
C234  N16   A    
C47   H20   S    
C146  C156  S    
N11   Ni10  S    
C223  H148  S    
C204  C210  A    
C66   C120  A    
N20   N37   A    
N16   Ni11  S    
C109  C160  S    
C93   N85   S    
C110  C159  S    
N2    Ni1   S    
C162  C213  A    
