data_mof_unit_2795.cif
_audit_creation_date              2013-03-05T15:53:07-0500
_audit_creation_method            fapswitch 2.2
_symmetry_space_group_name_H-M    P1
_symmetry_Int_Tables_number       1
_space_group_crystal_system       triclinic
_cell_length_a                    18.472602
_cell_length_b                    18.297263
_cell_length_c                    59.855178
_cell_angle_alpha                 89.632603
_cell_angle_beta                  89.331277
_cell_angle_gamma                 89.921954
_cell_volume                      20229.1232801

loop_
_atom_site_label
_atom_site_type_symbol
_atom_site_description
_atom_site_fract_x
_atom_site_fract_y
_atom_site_fract_z
_atom_type_partial_charge
Zn1   Zn    Zn3+2 0.500000 0.913460 0.269040 1.193551
Zn2   Zn    Zn3+2 0.500000 0.086540 0.730960 1.181240
Zn3   Zn    Zn3+2 0.086540 0.500000 0.269040 1.156372
Zn4   Zn    Zn3+2 0.913460 0.500000 0.730960 1.128178
Zn5   Zn    Zn3+2 0.500000 0.086540 0.269040 1.183815
Zn6   Zn    Zn3+2 0.500000 0.913460 0.730960 1.169379
Zn7   Zn    Zn3+2 0.913460 0.500000 0.269040 1.190098
Zn8   Zn    Zn3+2 0.086540 0.500000 0.730960 1.198401
Zn9   Zn    Zn3+2 1.000000 0.413460 0.769040 1.223344
Zn10  Zn    Zn3+2 1.000000 0.586540 0.230960 1.163800
Zn11  Zn    Zn3+2 0.586540 0.000000 0.769040 1.144612
Zn12  Zn    Zn3+2 0.413460 1.000000 0.230960 1.160835
Zn13  Zn    Zn3+2 1.000000 0.586540 0.769040 1.173717
Zn14  Zn    Zn3+2 0.000000 0.413460 0.230960 1.196756
Zn15  Zn    Zn3+2 0.413460 0.000000 0.769040 1.206513
Zn16  Zn    Zn3+2 0.586540 1.000000 0.230960 1.161553
O1    O     O_3   0.500000 1.000000 0.250000 -0.551329
O2    O     O_3   0.500000 0.000000 0.750000 -0.547403
O3    O     O_3   0.000000 0.500000 0.250000 -0.550677
O4    O     O_3   0.000000 0.500000 0.750000 -0.550717
O5    O     O_R   0.439130 0.000000 0.200390 -0.589325
O6    O     O_R   0.560870 0.000000 0.799610 -0.617950
O7    O     O_R   0.000000 0.439130 0.200390 -0.587040
O8    O     O_R   0.000000 0.560870 0.799610 -0.605692
O9    O     O_R   0.560870 0.000000 0.200390 -0.615081
O10   O     O_R   0.439130 0.000000 0.799610 -0.578354
O11   O     O_R   0.000000 0.560870 0.200390 -0.613677
O12   O     O_R   0.000000 0.439130 0.799610 -0.544663
O13   O     O_R   0.939130 0.500000 0.700390 -0.637096
O14   O     O_R   0.060870 0.500000 0.299610 -0.581969
O15   O     O_R   0.500000 0.939130 0.700390 -0.608057
O16   O     O_R   0.500000 0.060870 0.299610 -0.584769
O17   O     O_R   0.060870 0.500000 0.700390 -0.578816
O18   O     O_R   0.939130 0.500000 0.299610 -0.583624
O19   O     O_R   0.500000 0.060870 0.700390 -0.609785
O20   O     O_R   0.500000 0.939130 0.299610 -0.609176
O21   O     O_R   0.646010 0.914780 0.237240 -0.575480
O22   O     O_R   0.353990 0.085220 0.762760 -0.603956
O23   O     O_R   0.085220 0.646010 0.237240 -0.605787
O24   O     O_R   0.914780 0.353990 0.762760 -0.570360
O25   O     O_R   0.353990 0.085220 0.237240 -0.612964
O26   O     O_R   0.646010 0.914780 0.762760 -0.607954
O27   O     O_R   0.914780 0.353990 0.237240 -0.603362
O28   O     O_R   0.085220 0.646010 0.762760 -0.592816
O29   O     O_R   0.646010 0.085220 0.762760 -0.614911
O30   O     O_R   0.353990 0.914780 0.237240 -0.585715
O31   O     O_R   0.085220 0.353990 0.762760 -0.613765
O32   O     O_R   0.914780 0.646010 0.237240 -0.594735
O33   O     O_R   0.353990 0.914780 0.762760 -0.567034
O34   O     O_R   0.646010 0.085220 0.237240 -0.627971
O35   O     O_R   0.914780 0.646010 0.762760 -0.573946
O36   O     O_R   0.085220 0.353990 0.237240 -0.566743
O37   O     O_R   0.146010 0.414780 0.737240 -0.602755
O38   O     O_R   0.853990 0.585220 0.262760 -0.590208
O39   O     O_R   0.585220 0.146010 0.737240 -0.565071
O40   O     O_R   0.414780 0.853990 0.262760 -0.615071
O41   O     O_R   0.853990 0.585220 0.737240 -0.616506
O42   O     O_R   0.146010 0.414780 0.262760 -0.611436
O43   O     O_R   0.414780 0.853990 0.737240 -0.605583
O44   O     O_R   0.585220 0.146010 0.262760 -0.600329
O45   O     O_R   0.146010 0.585220 0.262760 -0.617130
O46   O     O_R   0.853990 0.414780 0.737240 -0.606052
O47   O     O_R   0.585220 0.853990 0.262760 -0.556128
O48   O     O_R   0.414780 0.146010 0.737240 -0.617154
O49   O     O_R   0.853990 0.414780 0.262760 -0.604644
O50   O     O_R   0.146010 0.585220 0.737240 -0.571952
O51   O     O_R   0.414780 0.146010 0.262760 -0.567755
O52   O     O_R   0.585220 0.853990 0.737240 -0.570541
C1    C     C_R   0.500401 0.000023 0.189733 0.905377
C2    C     C_R   0.499613 0.999643 0.810262 0.971325
C3    C     C_R   0.999539 0.500172 0.189681 0.964543
C4    C     C_R   0.000068 0.499873 0.810206 0.945657
C5    C     C_R   0.000403 0.499875 0.689733 0.936284
C6    C     C_R   0.999629 0.500033 0.310137 0.905883
C7    C     C_R   0.499900 0.000224 0.689680 0.934276
C8    C     C_R   0.499708 0.999757 0.310319 0.939176
C9    C     C_R   0.640532 0.860347 0.250434 0.905810
C10   C     C_R   0.363043 0.143427 0.751017 0.891346
C11   C     C_R   0.139866 0.640722 0.250041 0.934455
C12   C     C_R   0.858148 0.361876 0.751477 0.906622
C13   C     C_R   0.360568 0.140272 0.250196 0.891486
C14   C     C_R   0.640344 0.860364 0.749398 0.890701
C15   C     C_R   0.859267 0.359824 0.250129 0.956218
C16   C     C_R   0.138382 0.641983 0.748680 0.903869
C17   C     C_R   0.640314 0.139633 0.749540 0.919620
C18   C     C_R   0.365166 0.855228 0.248051 0.904341
C19   C     C_R   0.139698 0.359052 0.750070 0.936145
C20   C     C_R   0.860174 0.640258 0.249983 0.910532
C21   C     C_R   0.361566 0.858257 0.751314 0.902361
C22   C     C_R   0.643718 0.136145 0.251362 0.895181
C23   C     C_R   0.860784 0.640644 0.750020 0.898492
C24   C     C_R   0.140466 0.360316 0.249352 0.877897
C25   C     C_R   0.290680 0.805307 0.203345 0.202140
C26   C     C_R   0.645596 0.242994 0.786250 0.162823
C27   C     C_R   0.244000 0.341236 0.212259 0.164746
C28   C     C_R   0.736254 0.627793 0.781299 0.179615
C29   C     C_R   0.785433 0.125025 0.224075 0.198627
C30   C     C_R   0.319765 0.770545 0.792293 0.192325
C31   C     C_R   0.735115 0.625942 0.220712 0.165710
C32   C     C_R   0.172947 0.278085 0.792170 0.207385
C33   C     C_R   0.285074 0.179757 0.793297 0.190590
C34   C     C_R   0.638308 0.743493 0.216591 0.191026
C35   C     C_R   0.245061 0.640455 0.784350 0.165893
C36   C     C_R   0.817455 0.269498 0.211152 0.176964
C37   C     C_R   0.627541 0.735118 0.780878 0.176332
C38   C     C_R   0.374806 0.273437 0.223293 0.162466
C39   C     C_R   0.774713 0.318988 0.792837 0.181775
C40   C     C_R   0.203415 0.680950 0.206571 0.174161
C41   C     C_R   0.852460 0.261173 0.714387 0.155917
C42   C     C_R   0.219944 0.693459 0.289351 0.173722
C43   C     C_R   0.745179 0.842604 0.712714 0.169475
C44   C     C_R   0.242873 0.135281 0.284016 0.185886
C45   C     C_R   0.181242 0.730548 0.708201 0.192917
C46   C     C_R   0.775042 0.327811 0.292304 0.207835
C47   C     C_R   0.362125 0.274244 0.718979 0.180212
C48   C     C_R   0.744247 0.847516 0.286661 0.173538
C49   C     C_R   0.872423 0.771405 0.277435 0.165010
C50   C     C_R   0.216836 0.304498 0.709786 0.170775
C51   C     C_R   0.677203 0.214722 0.293751 0.193510
C52   C     C_R   0.249880 0.863452 0.717308 0.171157
C53   C     C_R   0.127615 0.234640 0.280553 0.172030
C54   C     C_R   0.876236 0.777705 0.725054 0.163793
C55   C     C_R   0.365583 0.724559 0.279191 0.183995
C56   C     C_R   0.738024 0.163119 0.710955 0.180447
C57   C     C_R   0.251402 0.781629 0.184674 0.148522
C58   C     C_R   0.656942 0.279566 0.806392 0.146110
C59   C     C_R   0.306397 0.354532 0.199216 0.150581
C60   C     C_R   0.676328 0.622114 0.795793 0.139960
C61   C     C_R   0.819139 0.139144 0.203180 0.117501
C62   C     C_R   0.314257 0.716676 0.809136 0.170231
C63   C     C_R   0.680887 0.624506 0.204527 0.140445
C64   C     C_R   0.169828 0.221179 0.808083 0.126540
C65   C     C_R   0.228321 0.172304 0.809084 0.155457
C66   C     C_R   0.634065 0.683714 0.202071 0.148970
C67   C     C_R   0.279707 0.650618 0.804793 0.152339
C68   C     C_R   0.829252 0.211788 0.195992 0.146165
C69   C     C_R   0.622530 0.675467 0.795630 0.143602
C70   C     C_R   0.372528 0.323598 0.205412 0.138805
C71   C     C_R   0.722368 0.314836 0.810035 0.158828
C72   C     C_R   0.209074 0.718714 0.186147 0.158610
C73   C     C_R   0.837395 0.229610 0.693681 0.139778
C74   C     C_R   0.272285 0.689445 0.306282 0.156033
C75   C     C_R   0.808578 0.856935 0.700202 0.143381
C76   C     C_R   0.183057 0.130041 0.298607 0.151446
C77   C     C_R   0.182892 0.786778 0.692017 0.165801
C78   C     C_R   0.716711 0.331932 0.307613 0.130706
C79   C     C_R   0.342549 0.298719 0.697500 0.123123
C80   C     C_R   0.805851 0.859841 0.299600 0.158293
C81   C     C_R   0.870614 0.824212 0.294348 0.146227
C82   C     C_R   0.269076 0.308138 0.692435 0.153313
C83   C     C_R   0.668259 0.272907 0.308861 0.157401
C84   C     C_R   0.213825 0.854256 0.697030 0.148859
C85   C     C_R   0.125813 0.179307 0.296866 0.143773
C86   C     C_R   0.874791 0.827684 0.707121 0.140456
C87   C     C_R   0.345688 0.700941 0.300920 0.121990
C88   C     C_R   0.779035 0.181822 0.691826 0.161060
C89   C     C_R   0.226928 0.715196 0.226490 -0.086576
C90   C     C_R   0.761732 0.287714 0.771232 -0.093648
C91   C     C_R   0.310470 0.256611 0.235954 -0.102532
C92   C     C_R   0.687677 0.742336 0.765578 -0.096776
C93   C     C_R   0.795339 0.253063 0.233469 -0.106231
C94   C     C_R   0.243949 0.697314 0.767819 -0.096707
C95   C     C_R   0.692014 0.745793 0.233809 -0.084745
C96   C     C_R   0.270951 0.216481 0.772698 -0.081191
C97   C     C_R   0.212730 0.266561 0.771966 -0.072780
C98   C     C_R   0.744026 0.688439 0.234857 -0.094863
C99   C     C_R   0.288991 0.759125 0.770639 -0.093502
C100  C     C_R   0.763503 0.184956 0.237608 -0.081884
C101  C     C_R   0.743367 0.688143 0.765937 -0.098288
C102  C     C_R   0.248225 0.299430 0.232431 -0.097797
C103  C     C_R   0.700087 0.242457 0.768907 -0.094892
C104  C     C_R   0.278899 0.772645 0.224983 -0.074763
C105  C     C_R   0.743915 0.205096 0.731050 -0.090797
C106  C     C_R   0.310221 0.741150 0.263637 -0.085471
C107  C     C_R   0.810922 0.758436 0.736727 -0.106452
C108  C     C_R   0.188647 0.242849 0.265681 -0.092129
C109  C     C_R   0.254446 0.804419 0.733056 -0.097460
C110  C     C_R   0.715730 0.227923 0.273373 -0.079856
C111  C     C_R   0.238991 0.288270 0.731983 -0.103732
C112  C     C_R   0.809229 0.756306 0.264519 -0.094513
C113  C     C_R   0.748050 0.801735 0.267332 -0.084144
C114  C     C_R   0.307208 0.257146 0.735004 -0.079900
C115  C     C_R   0.766060 0.286314 0.272435 -0.070581
C116  C     C_R   0.211178 0.741721 0.729922 -0.093113
C117  C     C_R   0.246282 0.191079 0.266966 -0.098657
C118  C     C_R   0.748595 0.800501 0.732855 -0.097993
C119  C     C_R   0.242179 0.709626 0.267085 -0.098955
C120  C     C_R   0.800803 0.256754 0.732402 -0.086567
C121  C     C_R   0.201329 0.692078 0.247976 -0.014123
C122  C     C_R   0.806751 0.300605 0.751891 -0.028131
C123  C     C_R   0.305601 0.197478 0.251433 -0.025622
C124  C     C_R   0.692504 0.799883 0.749312 -0.026894
C125  C     C_R   0.804617 0.300788 0.251853 -0.014808
C126  C     C_R   0.199799 0.693242 0.748527 -0.018151
C127  C     C_R   0.694148 0.801657 0.250450 -0.019297
C128  C     C_R   0.316206 0.208780 0.753522 -0.003979
C129  C     C_R   0.196441 0.302685 0.751280 -0.018642
C130  C     C_R   0.803995 0.696180 0.249588 -0.039339
C131  C     C_R   0.300352 0.807063 0.751881 -0.022907
C132  C     C_R   0.709922 0.180957 0.254746 0.005762
C133  C     C_R   0.804828 0.697106 0.751328 -0.032097
C134  C     C_R   0.192627 0.299473 0.249106 -0.021759
C135  C     C_R   0.694793 0.197526 0.749578 -0.029050
C136  C     C_R   0.319043 0.788895 0.244923 -0.018527
C137  C     C_R   0.436786 0.015793 0.417454 0.529736
C138  C     C_R   0.561790 0.978209 0.582614 0.531675
C139  C     C_R   0.052056 0.460149 0.416672 0.533167
C140  C     C_R   0.957360 0.544454 0.582728 0.529054
C141  C     C_R   0.561072 0.980617 0.416939 0.534746
C142  C     C_R   0.441670 0.025947 0.583032 0.528257
C143  C     C_R   0.946724 0.535520 0.417117 0.531649
C144  C     C_R   0.048174 0.451799 0.582459 0.534657
C145  C     C_R   0.962239 0.448021 0.917171 0.535929
C146  C     C_R   0.045443 0.547082 0.082357 0.531570
C147  C     C_R   0.476059 0.936374 0.917420 0.526469
C148  C     C_R   0.531645 0.054890 0.082562 0.524957
C149  C     C_R   0.036829 0.554222 0.916679 0.525263
C150  C     C_R   0.954088 0.455197 0.082871 0.527419
C151  C     C_R   0.518237 0.059435 0.917017 0.531957
C152  C     C_R   0.475176 0.937828 0.083118 0.531667
O53   O     O_2   0.375834 0.031867 0.406207 -0.509514
O54   O     O_2   0.620661 0.955763 0.593920 -0.497340
O55   O     O_2   0.104060 0.424618 0.405008 -0.516230
O56   O     O_2   0.914283 0.590706 0.594296 -0.521370
O57   O     O_2   0.621653 0.964142 0.405185 -0.499372
O58   O     O_2   0.383072 0.048703 0.594748 -0.503232
O59   O     O_2   0.894263 0.571097 0.405900 -0.514904
O60   O     O_2   0.091633 0.405605 0.593777 -0.497657
O61   O     O_2   0.927031 0.395365 0.905962 -0.498201
O62   O     O_2   0.091009 0.590870 0.093557 -0.492023
O63   O     O_2   0.456133 0.876192 0.906125 -0.501950
O64   O     O_2   0.558875 0.112134 0.093809 -0.513150
O65   O     O_2   0.072045 0.606835 0.904994 -0.517993
O66   O     O_2   0.908570 0.411371 0.094574 -0.504080
O67   O     O_2   0.537475 0.119838 0.905338 -0.497233
O68   O     O_2   0.448429 0.880614 0.094906 -0.487939
N1    N     N_R   0.498767 0.998088 0.405951 -0.356479
N2    N     N_R   0.501833 0.002143 0.594060 -0.359140
N3    N     N_R   0.999217 0.497939 0.405587 -0.354250
N4    N     N_R   0.002810 0.498005 0.593899 -0.355216
N5    N     N_R   0.999568 0.501077 0.905625 -0.355078
N6    N     N_R   0.999821 0.501089 0.093911 -0.356747
N7    N     N_R   0.497027 0.997936 0.905960 -0.357298
N8    N     N_R   0.503543 0.996423 0.094074 -0.359293
C153  C     C_R   0.508481 0.933079 0.370152 -0.057061
C154  C     C_R   0.503241 0.935330 0.629837 -0.065591
C155  C     C_R   0.005106 0.564678 0.369625 -0.049365
C156  C     C_R   0.065673 0.514740 0.629693 -0.055163
C157  C     C_R   0.488577 0.063993 0.370168 -0.061888
C158  C     C_R   0.499994 0.067713 0.629831 -0.046988
C159  C     C_R   0.992768 0.432755 0.369649 -0.060421
C160  C     C_R   0.939034 0.480569 0.629987 -0.050922
C161  C     C_R   0.065103 0.494313 0.869512 -0.044102
C162  C     C_R   0.017523 0.437049 0.129840 -0.056055
C163  C     C_R   0.562967 0.005650 0.870058 -0.066735
C164  C     C_R   0.567901 0.992446 0.129842 -0.066340
C165  C     C_R   0.934464 0.507580 0.869874 -0.061567
C166  C     C_R   0.982221 0.564603 0.129817 -0.049809
C167  C     C_R   0.432746 0.990109 0.870211 -0.051696
C168  C     C_R   0.437162 0.002834 0.129839 -0.061907
C169  C     C_R   0.508682 0.933430 0.346831 -0.107710
C170  C     C_R   0.502643 0.934771 0.653151 -0.117737
C171  C     C_R   0.004632 0.565238 0.346290 -0.120903
C172  C     C_R   0.065219 0.514882 0.653036 -0.072928
C173  C     C_R   0.488638 0.064451 0.346859 -0.063384
C174  C     C_R   0.499444 0.067304 0.653151 -0.105594
C175  C     C_R   0.993148 0.433287 0.346305 -0.102426
C176  C     C_R   0.938257 0.481563 0.653312 -0.141613
C177  C     C_R   0.065234 0.494408 0.846180 -0.098420
C178  C     C_R   0.017005 0.436663 0.153169 -0.076404
C179  C     C_R   0.563651 0.006170 0.846747 -0.140618
C180  C     C_R   0.567192 0.993487 0.153169 -0.124701
C181  C     C_R   0.934576 0.506962 0.846540 -0.108708
C182  C     C_R   0.982362 0.564486 0.153148 -0.099432
C183  C     C_R   0.433334 0.990374 0.846885 -0.048630
C184  C     C_R   0.436334 0.004124 0.153143 -0.106522
C185  C     C_R   0.498560 0.998358 0.381933 0.257775
C186  C     C_R   0.501819 0.001751 0.618071 0.267304
C187  C     C_R   0.999011 0.498444 0.381491 0.254611
C188  C     C_R   0.002583 0.497605 0.617996 0.258496
C189  C     C_R   0.999704 0.500910 0.881538 0.245816
C190  C     C_R   0.999934 0.500941 0.117994 0.255083
C191  C     C_R   0.497543 0.997834 0.881923 0.260144
C192  C     C_R   0.502894 0.997036 0.118082 0.268955
C193  C     C_R   0.499529 0.998923 0.452600 -0.044863
C194  C     C_R   0.501254 0.001488 0.547419 -0.045387
C195  C     C_R   0.000103 0.497779 0.452318 -0.046156
C196  C     C_R   0.002229 0.498153 0.547170 -0.045684
C197  C     C_R   0.999508 0.501200 0.952345 -0.045901
C198  C     C_R   0.999652 0.501216 0.047194 -0.045174
C199  C     C_R   0.498253 0.997577 0.952624 -0.045062
C200  C     C_R   0.502420 0.996448 0.047435 -0.045614
C201  C     C_R   0.436118 0.016836 0.440932 -0.031365
C202  C     C_R   0.562584 0.977402 0.559132 -0.035193
C203  C     C_R   0.052974 0.458725 0.440172 -0.030681
C204  C     C_R   0.955665 0.544773 0.559242 -0.028483
C205  C     C_R   0.562507 0.980420 0.440414 -0.034799
C206  C     C_R   0.440294 0.026096 0.559559 -0.032534
C207  C     C_R   0.946702 0.536796 0.440613 -0.030556
C208  C     C_R   0.049248 0.451597 0.558948 -0.034389
C209  C     C_R   0.960904 0.447585 0.940672 -0.035179
C210  C     C_R   0.045643 0.548512 0.058857 -0.035626
C211  C     C_R   0.475905 0.935213 0.940911 -0.032511
C212  C     C_R   0.531543 0.056008 0.059080 -0.030326
C213  C     C_R   0.038111 0.554776 0.940168 -0.028804
C214  C     C_R   0.953723 0.453886 0.059381 -0.031852
C215  C     C_R   0.519663 0.060225 0.940487 -0.035634
C216  C     C_R   0.474159 0.936729 0.059641 -0.037710
C217  C     C_R   0.373349 0.034921 0.452881 -0.107277
C218  C     C_R   0.623178 0.952748 0.547230 -0.106686
C219  C     C_R   0.106028 0.419738 0.451683 -0.105469
C220  C     C_R   0.908843 0.591114 0.547670 -0.107294
C221  C     C_R   0.625671 0.962818 0.451846 -0.105675
C222  C     C_R   0.379383 0.050368 0.548082 -0.103944
C223  C     C_R   0.894096 0.575727 0.452556 -0.105347
C224  C     C_R   0.095739 0.405329 0.547066 -0.103344
C225  C     C_R   0.922400 0.394303 0.952646 -0.104974
C226  C     C_R   0.091300 0.595688 0.046870 -0.104903
C227  C     C_R   0.454674 0.872840 0.952825 -0.107047
C228  C     C_R   0.559917 0.115308 0.047105 -0.107711
C229  C     C_R   0.076604 0.608104 0.951642 -0.106742
C230  C     C_R   0.907972 0.406770 0.047922 -0.105574
C231  C     C_R   0.541606 0.122404 0.951970 -0.105578
C232  C     C_R   0.445128 0.877499 0.048223 -0.104186
C233  C     C_R   0.499014 0.999200 0.334961 -0.052312
C234  C     C_R   0.500612 0.000777 0.665037 -0.042483
C235  C     C_R   0.998888 0.499543 0.334567 -0.033937
C236  C     C_R   0.001324 0.498826 0.665068 -0.043342
C237  C     C_R   0.999912 0.499872 0.834632 -0.051758
C238  C     C_R   0.999642 0.500474 0.165038 -0.036583
C239  C     C_R   0.498803 0.998761 0.834921 -0.039573
C240  C     C_R   0.501332 0.999274 0.165063 -0.042854
H1    H     H_    0.480519 0.115861 0.338173 0.222123
H2    H     H_    0.498020 0.119019 0.661850 0.208080
H3    H     H_    0.989102 0.382118 0.337407 0.216949
H4    H     H_    0.888435 0.468259 0.662137 0.189777
H5    H     H_    0.516738 0.882329 0.338115 0.228586
H6    H     H_    0.503722 0.882704 0.661847 0.197338
H7    H     H_    0.008606 0.616824 0.337404 0.214205
H8    H     H_    0.114625 0.528392 0.661645 0.222459
H9    H     H_    0.883816 0.512180 0.837809 0.229930
H10   H     H_    0.968253 0.614259 0.161880 0.196388
H11   H     H_    0.382570 0.984015 0.838248 0.234465
H12   H     H_    0.384829 0.009369 0.161774 0.213705
H13   H     H_    0.116235 0.490522 0.837159 0.226159
H14   H     H_    0.030833 0.386631 0.161905 0.217057
H15   H     H_    0.614926 0.012629 0.838008 0.187078
H16   H     H_    0.618148 0.989592 0.161866 0.205199
H17   H     H_    0.481000 0.114728 0.379117 0.175741
H18   H     H_    0.499112 0.119304 0.620873 0.174456
H19   H     H_    0.987657 0.381282 0.378549 0.179268
H20   H     H_    0.890100 0.466588 0.621201 0.172299
H21   H     H_    0.515959 0.882046 0.379095 0.176873
H22   H     H_    0.504458 0.884101 0.620882 0.164337
H23   H     H_    0.010295 0.615742 0.378504 0.179721
H24   H     H_    0.115040 0.528378 0.620678 0.179408
H25   H     H_    0.883684 0.513452 0.878907 0.181417
H26   H     H_    0.968024 0.614175 0.120906 0.170969
H27   H     H_    0.381871 0.984164 0.879204 0.180474
H28   H     H_    0.386708 0.006831 0.120879 0.169567
H29   H     H_    0.115849 0.489168 0.878260 0.185189
H30   H     H_    0.031753 0.387632 0.120943 0.176554
H31   H     H_    0.613370 0.011294 0.878938 0.165502
H32   H     H_    0.618951 0.987860 0.120883 0.169566
H33   H     H_    0.323571 0.048006 0.444324 0.202643
H34   H     H_    0.670758 0.933122 0.555834 0.203248
H35   H     H_    0.147952 0.390012 0.442759 0.201644
H36   H     H_    0.873184 0.628323 0.556529 0.201046
H37   H     H_    0.675116 0.949241 0.442874 0.203416
H38   H     H_    0.332110 0.070458 0.557009 0.204586
H39   H     H_    0.851745 0.605366 0.443987 0.201909
H40   H     H_    0.131793 0.368225 0.555700 0.203365
H41   H     H_    0.893051 0.351790 0.944092 0.202454
H42   H     H_    0.127975 0.631935 0.055412 0.203847
H43   H     H_    0.438090 0.823806 0.944228 0.204031
H44   H     H_    0.583557 0.161375 0.055641 0.202487
H45   H     H_    0.105949 0.650592 0.942698 0.202428
H46   H     H_    0.871328 0.370514 0.056879 0.203096
H47   H     H_    0.557385 0.171684 0.943049 0.204618
H48   H     H_    0.422246 0.831249 0.057210 0.205009
C241  C     C_R   0.954998 0.451013 0.011911 0.044538
C242  C     C_R   0.041231 0.553922 0.987633 0.044637
C243  C     C_R   0.473743 0.935150 0.012173 0.044310
C244  C     C_R   0.524165 0.059965 0.987913 0.044174
C245  C     C_R   0.044125 0.551487 0.011381 0.044617
C246  C     C_R   0.957822 0.448562 0.988153 0.044774
C247  C     C_R   0.528127 0.058448 0.011641 0.044764
C248  C     C_R   0.475415 0.934285 0.988393 0.044452
C249  C     C_R   0.437726 0.023592 0.512121 0.044440
C250  C     C_R   0.563989 0.979503 0.487879 0.044492
C251  C     C_R   0.051233 0.452897 0.511444 0.044708
C252  C     C_R   0.948730 0.540114 0.488069 0.044914
C253  C     C_R   0.563568 0.977592 0.511658 0.044921
C254  C     C_R   0.436400 0.020279 0.488379 0.044949
C255  C     C_R   0.951754 0.543169 0.511796 0.045132
C256  C     C_R   0.053110 0.455674 0.487665 0.044781
C257  C     C_R   0.999590 0.501242 0.023400 0.079810
C258  C     C_R   0.999517 0.501231 0.976140 0.079836
C259  C     C_R   0.501450 0.996668 0.023651 0.079295
C260  C     C_R   0.499264 0.997277 0.976409 0.079514
C261  C     C_R   0.500855 0.000903 0.523632 0.079427
C262  C     C_R   0.499973 0.999560 0.476387 0.079817
C263  C     C_R   0.001746 0.498077 0.523374 0.080165
C264  C     C_R   0.000647 0.497847 0.476113 0.080208
C265  C     C_R   0.908518 0.405210 0.024703 -0.198020
C266  C     C_R   0.078276 0.607784 0.974857 -0.198397
C267  C     C_R   0.444759 0.876615 0.025011 -0.197193
C268  C     C_R   0.543782 0.122468 0.975163 -0.197710
C269  C     C_R   0.090631 0.597303 0.023648 -0.197377
C270  C     C_R   0.920748 0.394682 0.975871 -0.197103
C271  C     C_R   0.558445 0.116595 0.023903 -0.198336
C272  C     C_R   0.454436 0.872202 0.976044 -0.198697
C273  C     C_R   0.378028 0.049367 0.524885 -0.197398
C274  C     C_R   0.626593 0.962426 0.475052 -0.196919
C275  C     C_R   0.096884 0.405907 0.523831 -0.196661
C276  C     C_R   0.894995 0.577503 0.475768 -0.197373
C277  C     C_R   0.623767 0.952636 0.524018 -0.196888
C278  C     C_R   0.373286 0.036532 0.476082 -0.197530
C279  C     C_R   0.906768 0.590398 0.524463 -0.197609
C280  C     C_R   0.106175 0.418076 0.474912 -0.196893
H49   H     H_    0.870434 0.368338 0.017296 0.150155
H50   H     H_    0.108034 0.651777 0.982281 0.150674
H51   H     H_    0.419933 0.829439 0.017691 0.150617
H52   H     H_    0.559963 0.173256 0.982562 0.151650
H53   H     H_    0.128650 0.634218 0.015810 0.150452
H54   H     H_    0.891001 0.350702 0.983692 0.150393
H55   H     H_    0.582878 0.163787 0.016104 0.150054
H56   H     H_    0.438661 0.821295 0.983762 0.151399
H57   H     H_    0.329370 0.070461 0.517513 0.150654
H58   H     H_    0.678035 0.949577 0.482365 0.151325
H59   H     H_    0.133300 0.367406 0.516090 0.150300
H60   H     H_    0.851541 0.607580 0.483579 0.150554
H61   H     H_    0.672236 0.931310 0.516325 0.150177
H62   H     H_    0.322097 0.049661 0.483834 0.151260
H63   H     H_    0.870165 0.628967 0.516950 0.150053
H64   H     H_    0.149894 0.387922 0.482354 0.150716
N9    N     N_R   0.399309 0.688841 0.317653 0.279867
O69   O     O_R   0.404385 0.625215 0.327335 -0.258308
O70   O     O_R   0.433702 0.744229 0.325948 -0.299627
N10   N     N_R   0.767057 0.144922 0.671104 0.282554
O71   O     O_R   0.707028 0.155539 0.660402 -0.284654
O72   O     O_R   0.819092 0.108133 0.661581 -0.214422
N11   N     N_R   0.065374 0.173923 0.312138 0.275297
O73   O     O_R   0.076038 0.172719 0.333588 -0.281507
O74   O     O_R   0.999898 0.166855 0.304684 -0.212688
N12   N     N_R   0.940305 0.844914 0.695021 0.279637
O75   O     O_R   0.943649 0.836780 0.673455 -0.239321
O76   O     O_R   0.997207 0.867616 0.705533 -0.259254
N13   N     N_R   0.612841 0.270207 0.325778 0.274394
O77   O     O_R   0.545246 0.268917 0.319942 -0.307366
O78   O     O_R   0.629614 0.254219 0.346291 -0.265112
N14   N     N_R   0.211321 0.913111 0.681062 0.277129
O79   O     O_R   0.236954 0.904140 0.660924 -0.288613
O80   O     O_R   0.184004 0.976060 0.686661 -0.221466
N15   N     N_R   0.934233 0.838187 0.307186 0.279848
O81   O     O_R   0.932735 0.830220 0.328804 -0.273077
O82   O     O_R   0.993268 0.860916 0.297353 -0.203974
N16   N     N_R   0.247909 0.323897 0.669922 0.271680
O83   O     O_R   0.275045 0.379884 0.659269 -0.277910
O84   O     O_R   0.203006 0.280992 0.659776 -0.238386
N17   N     N_R   0.396996 0.312865 0.680774 0.270159
O85   O     O_R   0.397960 0.275768 0.662302 -0.306600
O86   O     O_R   0.442927 0.365884 0.683374 -0.260051
N18   N     N_R   0.802764 0.909870 0.317997 0.282108
O87   O     O_R   0.755626 0.900660 0.334089 -0.253374
O88   O     O_R   0.848319 0.963905 0.318969 -0.220633
N19   N     N_R   0.152420 0.775206 0.670347 0.276483
O89   O     O_R   0.103442 0.819606 0.662675 -0.214773
O90   O     O_R   0.176125 0.722399 0.657763 -0.296525
N20   N     N_R   0.709225 0.394441 0.321945 0.269941
O91   O     O_R   0.723659 0.459406 0.314113 -0.280621
O92   O     O_R   0.689599 0.387434 0.342787 -0.253210
N21   N     N_R   0.805805 0.902144 0.680551 0.285039
O93   O     O_R   0.846257 0.960109 0.678917 -0.225977
O94   O     O_R   0.765935 0.883374 0.663760 -0.250188
N22   N     N_R   0.178989 0.071659 0.314761 0.276386
O95   O     O_R   0.229271 0.063612 0.329616 -0.257957
O96   O     O_R   0.123259 0.028230 0.315261 -0.234573
N23   N     N_R   0.884943 0.241417 0.674868 0.269392
O97   O     O_R   0.951883 0.219354 0.675538 -0.198226
O98   O     O_R   0.859453 0.267354 0.656258 -0.313337
N24   N     N_R   0.251350 0.674161 0.328959 0.274455
O99   O     O_R   0.230868 0.608556 0.334630 -0.275817
O100  O     O_R   0.265412 0.721312 0.344486 -0.280143
N25   N     N_R   0.735710 0.347684 0.831369 0.273483
O101  O     O_R   0.792476 0.329265 0.842787 -0.265774
O102  O     O_R   0.688991 0.392936 0.840039 -0.225394
N26   N     N_R   0.177260 0.689924 0.166329 0.285073
O103  O     O_R   0.107202 0.689075 0.164388 -0.323962
O104  O     O_R   0.217945 0.671768 0.149357 -0.237232
N27   N     N_R   0.562191 0.669718 0.810894 0.287403
O105  O     O_R   0.573017 0.662115 0.832224 -0.252181
O106  O     O_R   0.496468 0.667360 0.803372 -0.260862
N28   N     N_R   0.437160 0.339825 0.192736 0.276766
O107  O     O_R   0.438368 0.332001 0.171143 -0.268229
O108  O     O_R   0.495215 0.362007 0.202745 -0.220546
N29   N     N_R   0.276860 0.594317 0.821620 0.268967
O109  O     O_R   0.249157 0.607935 0.841245 -0.308974
O110  O     O_R   0.300586 0.528911 0.817241 -0.216557
N30   N     N_R   0.853160 0.226614 0.173540 0.271735
O111  O     O_R   0.914360 0.200224 0.166218 -0.277566
O112  O     O_R   0.812117 0.263628 0.160032 -0.254331
N31   N     N_R   0.232475 0.118819 0.826595 0.271536
O113  O     O_R   0.232223 0.049747 0.821589 -0.289392
O114  O     O_R   0.250852 0.138509 0.846593 -0.264621
N32   N     N_R   0.581387 0.683224 0.184556 0.277291
O115  O     O_R   0.601053 0.668311 0.164139 -0.273569
O116  O     O_R   0.513211 0.694351 0.189086 -0.212996
N33   N     N_R   0.670955 0.560349 0.191181 0.284110
O117  O     O_R   0.607935 0.528777 0.190496 -0.219503
O118  O     O_R   0.723707 0.535529 0.178789 -0.240470
N34   N     N_R   0.109334 0.216060 0.823385 0.266477
O119  O     O_R   0.044308 0.229844 0.816346 -0.257638
O120  O     O_R   0.118285 0.199412 0.844324 -0.257242
N35   N     N_R   0.841374 0.080143 0.189017 0.275483
O121  O     O_R   0.814013 0.073369 0.169205 -0.293536
O122  O     O_R   0.892162 0.035588 0.195399 -0.258252
N36   N     N_R   0.344655 0.729219 0.830802 0.281502
O123  O     O_R   0.325851 0.786490 0.842276 -0.276382
O124  O     O_R   0.388221 0.681499 0.839656 -0.212017
N37   N     N_R   0.302592 0.400400 0.179714 0.284633
O125  O     O_R   0.343015 0.458395 0.178015 -0.226269
O126  O     O_R   0.260280 0.383259 0.163334 -0.271223
N38   N     N_R   0.669245 0.560046 0.810483 0.277207
O127  O     O_R   0.719580 0.545111 0.824834 -0.265955
O128  O     O_R   0.610994 0.520167 0.810214 -0.244219
N39   N     N_R   0.259377 0.818261 0.163459 0.269468
O129  O     O_R   0.323047 0.825653 0.154191 -0.255432
O130  O     O_R   0.202359 0.838764 0.152491 -0.283755
N40   N     N_R   0.602206 0.278304 0.823642 0.280176
O131  O     O_R   0.616744 0.251826 0.843315 -0.279124
O132  O     O_R   0.537497 0.302968 0.819663 -0.196100
N41   N     N_R   0.342488 0.861377 0.199308 0.228940
O133  O     O_R   0.319857 0.924760 0.192271 -0.345350
O134  O     O_R   0.410203 0.843803 0.196598 -0.298229
N42   N     N_R   0.576128 0.210332 0.783322 0.207948
O135  O     O_R   0.531353 0.239295 0.769243 -0.277192
O136  O     O_R   0.553666 0.159386 0.796972 -0.369040
N43   N     N_R   0.175468 0.360508 0.203015 0.218704
O137  O     O_R   0.132751 0.309210 0.196024 -0.324448
O138  O     O_R   0.160933 0.428213 0.198193 -0.326803
N44   N     N_R   0.787858 0.569599 0.782159 0.203487
O139  O     O_R   0.772850 0.507718 0.772704 -0.376947
O140  O     O_R   0.840049 0.572512 0.796518 -0.377683
N45   N     N_R   0.781632 0.051247 0.232612 0.250730
O141  O     O_R   0.791309 0.038230 0.253771 -0.310772
O142  O     O_R   0.766864 0.996977 0.219485 -0.299947
N46   N     N_R   0.348819 0.839492 0.798690 0.218188
O143  O     O_R   0.416086 0.843556 0.804701 -0.323157
O144  O     O_R   0.304377 0.891583 0.804390 -0.293321
N47   N     N_R   0.774265 0.559384 0.224255 0.209290
O145  O     O_R   0.828907 0.542778 0.211324 -0.382339
O146  O     O_R   0.747602 0.510230 0.237813 -0.309426
N48   N     N_R   0.158565 0.351272 0.799700 0.226748
O147  O     O_R   0.201307 0.403654 0.793084 -0.299210
O148  O     O_R   0.116857 0.362764 0.816965 -0.335214
N49   N     N_R   0.358536 0.166473 0.800093 0.230755
O149  O     O_R   0.372914 0.121486 0.816331 -0.326380
O150  O     O_R   0.408656 0.212101 0.793753 -0.272238
N50   N     N_R   0.589613 0.802816 0.212510 0.205706
O151  O     O_R   0.526755 0.803549 0.222511 -0.338373
O152  O     O_R   0.600379 0.844716 0.195152 -0.344863
N51   N     N_R   0.215128 0.569904 0.780151 0.217888
O153  O     O_R   0.160887 0.546280 0.792205 -0.395175
O154  O     O_R   0.247880 0.526007 0.766311 -0.297668
N52   N     N_R   0.819151 0.343902 0.203284 0.237709
O155  O     O_R   0.766711 0.388187 0.208623 -0.267298
O156  O     O_R   0.869725 0.366350 0.189593 -0.314376
N53   N     N_R   0.570781 0.788170 0.782198 0.202635
O157  O     O_R   0.570541 0.834885 0.798484 -0.360519
O158  O     O_R   0.511992 0.778334 0.770851 -0.364795
N54   N     N_R   0.444051 0.244585 0.229321 0.211307
O159  O     O_R   0.477978 0.272352 0.246194 -0.300283
O160  O     O_R   0.478660 0.201409 0.215685 -0.411765
N55   N     N_R   0.843360 0.348146 0.798787 0.224672
O161  O     O_R   0.894755 0.303298 0.804512 -0.261389
O162  O     O_R   0.848060 0.416481 0.804375 -0.341902
N56   N     N_R   0.189437 0.603452 0.206445 0.219760
O163  O     O_R   0.229146 0.559881 0.218473 -0.361199
O164  O     O_R   0.146563 0.574980 0.191841 -0.315215
N57   N     N_R   0.924213 0.288291 0.717816 0.217121
O165  O     O_R   0.950866 0.339600 0.705038 -0.361602
O166  O     O_R   0.965786 0.255356 0.732108 -0.306132
N58   N     N_R   0.144487 0.695122 0.295272 0.227749
O167  O     O_R   0.104425 0.748597 0.288098 -0.266323
O168  O     O_R   0.116660 0.647214 0.308985 -0.338603
N59   N     N_R   0.676890 0.860166 0.702893 0.223529
O169  O     O_R   0.634554 0.807497 0.696647 -0.332082
O170  O     O_R   0.662441 0.926780 0.696711 -0.308445
N60   N     N_R   0.299928 0.083466 0.287291 0.194253
O171  O     O_R   0.292576 0.017092 0.279990 -0.390731
O172  O     O_R   0.349205 0.097052 0.302038 -0.358626
N61   N     N_R   0.158594 0.659892 0.701015 0.224368
O173  O     O_R   0.207489 0.610213 0.697046 -0.316802
O174  O     O_R   0.093840 0.651201 0.693171 -0.349434
N62   N     N_R   0.846485 0.344190 0.300320 0.227035
O175  O     O_R   0.900548 0.303172 0.294176 -0.306724
O176  O     O_R   0.855138 0.386595 0.317433 -0.336040
N63   N     N_R   0.435811 0.281652 0.725891 0.262624
O177  O     O_R   0.450138 0.323285 0.742793 -0.252442
O178  O     O_R   0.488808 0.256563 0.713626 -0.291077
N64   N     N_R   0.676648 0.874555 0.295070 0.212372
O179  O     O_R   0.664716 0.944511 0.295832 -0.346284
O180  O     O_R   0.632951 0.830188 0.305628 -0.295999
N65   N     N_R   0.940213 0.736135 0.273154 0.212342
O181  O     O_R   0.963804 0.686809 0.287041 -0.386329
O182  O     O_R   0.983287 0.762013 0.257686 -0.294605
N66   N     N_R   0.141367 0.307904 0.704458 0.233346
O183  O     O_R   0.098469 0.255886 0.711259 -0.266334
O184  O     O_R   0.116835 0.357918 0.690977 -0.307844
N67   N     N_R   0.662231 0.140793 0.301003 0.232123
O185  O     O_R   0.618967 0.127701 0.317822 -0.326015
O186  O     O_R   0.704585 0.088286 0.294299 -0.298439
N68   N     N_R   0.275715 0.935181 0.722516 0.209308
O187  O     O_R   0.241842 0.973743 0.737549 -0.310705
O188  O     O_R   0.325030 0.966089 0.709967 -0.414888
N69   N     N_R   0.064558 0.279497 0.278790 0.208755
O189  O     O_R   0.051941 0.329389 0.293730 -0.388312
O190  O     O_R   0.013132 0.259916 0.265429 -0.316248
N70   N     N_R   0.945238 0.751695 0.732262 0.211258
O191  O     O_R   0.974427 0.779551 0.749953 -0.314706
O192  O     O_R   0.983592 0.709472 0.719350 -0.389113
N71   N     N_R   0.439589 0.717392 0.271450 0.249202
O193  O     O_R   0.452993 0.697169 0.251008 -0.303353
O194  O     O_R   0.493798 0.728930 0.284638 -0.262472
N72   N     N_R   0.699961 0.095052 0.710562 0.204505
O195  O     O_R   0.725302 0.039592 0.721730 -0.383203
O196  O     O_R   0.648345 0.084806 0.696360 -0.320326

loop_
_geom_bond_atom_site_label_1
_geom_bond_atom_site_label_2
_geom_bond_distance
_ccdc_geom_bond_type
C140  C204  1.406453 A    
C181  C237  1.400799 A    
N63   O177  1.300171 A    
N55   O162  1.299636 A    
C105  C120  1.417727 A    
C148  N8    1.368358 A    
C170  H6    1.082940 S    
Zn11  O2    1.974050 S    
C171  H7    1.082595 S    
C224  C275  1.390622 A    
Zn5   O51   1.951273 S    
C225  C270  1.390189 A    
N22   O96   1.301297 A    
C145  O61   1.349664 S    
N49   O149  1.299204 A    
C220  C279  1.390139 A    
C153  H21   1.082823 S    
C182  H10   1.082940 S    
C213  C229  1.396850 A    
C65   N31   1.432000 S    
C142  N2    1.368461 A    
Zn1   O40   1.956346 S    
C173  C233  1.405879 A    
C219  C280  1.390536 A    
C72   N26   1.433598 S    
Zn2   O39   1.956344 S    
C171  C235  1.400486 A    
N44   O139  1.300738 A    
C175  C235  1.400779 A    
C217  C278  1.389201 A    
C45   C116  1.434720 A    
C276  H60   1.076641 S    
C50   N66   1.434936 S    
C46   C115  1.426503 A    
N70   O191  1.301066 A    
C184  C240  1.406213 A    
N54   O160  1.301441 A    
N40   O131  1.301232 A    
C39   N55   1.426307 S    
C229  C266  1.390247 A    
Zn13  O35   1.951273 S    
O34   C22   1.262422 A    
Zn14  O36   1.951271 S    
C38   N54   1.432333 S    
N18   O87   1.301200 A    
N13   O78   1.301228 A    
N4    C188  1.442217 S    
Zn3   O3    1.974050 S    
C141  C205  1.405605 A    
O41   C23   1.281353 A    
C280  H64   1.076617 S    
C228  H44   1.083503 S    
C14   C124  1.466334 S    
C26   C58   1.400649 A    
C249  C254  1.423236 A    
C275  H59   1.076616 S    
N27   O106  1.300655 A    
N48   O148  1.299807 A    
C168  C192  1.400527 A    
C161  C189  1.404488 A    
N52   O156  1.300732 A    
N31   O114  1.301229 A    
C28   N44   1.429264 S    
C172  C236  1.405863 A    
C80   N18   1.437045 S    
C225  H41   1.083458 S    
N51   O153  1.300643 A    
C79   C82   1.404278 A    
N62   O175  1.299534 A    
C149  O65   1.349635 S    
N33   O118  1.300853 A    
C75   C86   1.400450 A    
O22   C10   1.282359 A    
O28   C16   1.288958 A    
N32   O115  1.301372 A    
N9    O69   1.300887 A    
C242  C258  1.421073 A    
C231  H47   1.083501 S    
C77   N19   1.436993 S    
N1    C185  1.437676 S    
C52   C109  1.432094 A    
C98   C130  1.431603 A    
C108  C134  1.431235 A    
O40   C18   1.278347 A    
N34   O119  1.301398 A    
C196  C208  1.407710 A    
C138  N2    1.368455 A    
N42   O135  1.297867 A    
C150  O66   1.349669 S    
C195  C207  1.407614 A    
C174  C234  1.406255 A    
O17   C5    1.292747 A    
N50   O151  1.300223 A    
N19   O90   1.301208 A    
C180  H16   1.082970 S    
N24   O100  1.300826 A    
N41   O134  1.299703 A    
O9    C1    1.292775 A    
C116  C126  1.432966 A    
C159  C175  1.397190 A    
C44   C117  1.439821 A    
C55   C106  1.422189 A    
O11   C3    1.285961 A    
C6    C235  1.462172 S    
Zn16  O9    1.895568 S    
N10   O72   1.300917 A    
C252  C276  1.415699 A    
N12   O76   1.301267 A    
Zn13  O4    1.956836 S    
C177  H13   1.082898 S    
C172  H8    1.082973 S    
C147  N7    1.369101 A    
Zn14  O3    1.956841 S    
N47   O145  1.301600 A    
C160  H20   1.082828 S    
Zn16  O34   1.949708 S    
N58   O167  1.299792 A    
C197  C213  1.407591 A    
C32   C64   1.407454 A    
C73   C88   1.394891 A    
N36   O123  1.301197 A    
C33   C65   1.409352 A    
C109  C116  1.413811 A    
N69   O189  1.300901 A    
C156  H24   1.082785 S    
C49   N65   1.429228 S    
C146  N6    1.370222 A    
C105  C135  1.430829 A    
C247  C271  1.416123 A    
C9    C127  1.459878 S    
C47   N63   1.434115 S    
C107  C118  1.404730 A    
O38   C20   1.265100 A    
C208  C224  1.396983 A    
C176  H4    1.083022 S    
N46   O144  1.301671 A    
N26   O103  1.300821 A    
C157  C185  1.401337 A    
C74   N24   1.432900 S    
C196  C204  1.407504 A    
C58   N40   1.436771 S    
N57   O165  1.300752 A    
C138  C202  1.405585 A    
C161  H29   1.082770 S    
Zn4   O4    1.974055 S    
C158  H18   1.082835 S    
C163  C191  1.401625 A    
N15   O82   1.300671 A    
C49   C81   1.403955 A    
N51   O154  1.301132 A    
C32   N48   1.439087 S    
C220  H36   1.083453 S    
Zn13  O28   1.946578 S    
C155  C171  1.396840 A    
Zn9   O12   1.892009 S    
C273  H57   1.075975 S    
Zn14  O27   1.946580 S    
C156  C172  1.397134 A    
Zn10  O11   1.892009 S    
Zn15  O2    1.952390 S    
N56   O164  1.298417 A    
C25   C104  1.437280 A    
C139  O55   1.349589 S    
N65   O181  1.301194 A    
C91   C102  1.407666 A    
C47   C79   1.409705 A    
C166  C182  1.396520 A    
O27   C15   1.280817 A    
C153  C169  1.395818 A    
C256  C264  1.421123 A    
N17   O85   1.301022 A    
C218  H34   1.083509 S    
C210  C226  1.396821 A    
O46   C12   1.288348 A    
C200  C259  1.423945 A    
N42   O136  1.300764 A    
C90   C122  1.435938 A    
O50   C16   1.254536 A    
O14   C6    1.288478 A    
N60   O172  1.300645 A    
C37   C92   1.437085 A    
C37   N53   1.429748 S    
C82   N16   1.434867 S    
C45   C77   1.408727 A    
C38   C91   1.434753 A    
N30   O111  1.301139 A    
C194  C202  1.408032 A    
C91   C123  1.422174 A    
C120  C122  1.425417 A    
O43   C21   1.289680 A    
C157  C173  1.395087 A    
C243  C248  1.423514 A    
C13   C123  1.458923 S    
C152  C216  1.405802 A    
C241  C246  1.423379 A    
N67   O185  1.299304 A    
C22   C132  1.489835 S    
C16   C126  1.472898 S    
C3    C238  1.474989 S    
C230  H46   1.083459 S    
C216  C232  1.396000 A    
C43   C75   1.406798 A    
C83   N13   1.432154 S    
Zn15  O33   1.949709 S    
C182  C238  1.404885 A    
C165  C189  1.404588 A    
C142  O58   1.349698 S    
C162  H30   1.082803 S    
N61   O174  1.300442 A    
C104  C136  1.445228 A    
C70   N28   1.437424 S    
C25   C57   1.410303 A    
C57   C72   1.394243 A    
C250  C262  1.421561 A    
N28   O108  1.301162 A    
C58   C71   1.390968 A    
C198  C214  1.407606 A    
C251  C275  1.415833 A    
N16   O83   1.301077 A    
C34   N50   1.430408 S    
C151  O67   1.349765 S    
C55   N71   1.444409 S    
C112  C130  1.425944 A    
C75   N21   1.434958 S    
C230  C265  1.390143 A    
Zn12  O30   1.940890 S    
C193  C262  1.424017 A    
N9    O70   1.301099 A    
N20   O91   1.301784 A    
C34   C95   1.439647 A    
C40   C89   1.423074 A    
C48   N64   1.429765 S    
O5    C1    1.292715 A    
C32   C97   1.424449 A    
N29   O110  1.301119 A    
O31   C19   1.256896 A    
C15   C125  1.481783 S    
C150  C214  1.406421 A    
N25   O101  1.301186 A    
C106  C119  1.396261 A    
N37   O126  1.301143 A    
N66   O183  1.299655 A    
C106  C136  1.424059 A    
C93   C125  1.421198 A    
O37   C19   1.277197 A    
C10   C128  1.482360 S    
N68   O188  1.301452 A    
C214  C230  1.396797 A    
C160  C176  1.396281 A    
C57   N39   1.438221 S    
C162  C190  1.403101 A    
C177  C237  1.400738 A    
O51   C13   1.264243 A    
C28   C101  1.437595 A    
C11   C121  1.478354 S    
C277  H61   1.075934 S    
N35   O121  1.301177 A    
C47   C114  1.421730 A    
C24   C134  1.471378 S    
O8    C4    1.280154 A    
C79   N17   1.433427 S    
N52   O155  1.300396 A    
C43   C118  1.428438 A    
C36   C68   1.411712 A    
Zn5   O44   1.946578 S    
C219  H35   1.083443 S    
C86   N12   1.437429 S    
O48   C10   1.255720 A    
Zn6   O43   1.946580 S    
C110  C115  1.417645 A    
N38   O128  1.301252 A    
N14   O79   1.301188 A    
N2    C186  1.437104 S    
Zn8   O37   1.943450 S    
O16   C8    1.285310 A    
C54   N70   1.430365 S    
N31   O113  1.300740 A    
C96   C128  1.419683 A    
C197  C258  1.424218 A    
N21   O94   1.301121 A    
C29   C100  1.423112 A    
C147  C211  1.406034 A    
C25   N41   1.421588 S    
C148  C212  1.405608 A    
O52   C14   1.264442 A    
C111  C114  1.395358 A    
C183  C239  1.406387 A    
N44   O140  1.300434 A    
O45   C11   1.271041 A    
C267  H51   1.076123 S    
C168  H28   1.082865 S    
N45   O142  1.301357 A    
N70   O192  1.299810 A    
C41   N57   1.433398 S    
N40   O132  1.301176 A    
C150  N6    1.370245 A    
C39   C71   1.405831 A    
C27   C102  1.427983 A    
C159  C187  1.404815 A    
C156  C188  1.403430 A    
C77   C84   1.397000 A    
C68   N30   1.434013 S    
C37   C69   1.401934 A    
N55   O161  1.301548 A    
C168  C184  1.395121 A    
C271  H55   1.076190 S    
C223  H39   1.083452 S    
N13   O77   1.300809 A    
C109  C131  1.419215 A    
N43   O137  1.301344 A    
C205  C221  1.395769 A    
C99   C131  1.434006 A    
C153  C185  1.401641 A    
O42   C24   1.288450 A    
O6    C2    1.292338 A    
Zn1   O20   1.892009 S    
Zn2   O19   1.892009 S    
C248  C260  1.421419 A    
C36   N52   1.437955 S    
C30   N46   1.427916 S    
C197  C209  1.407639 A    
N34   O120  1.300269 A    
C179  C239  1.405686 A    
N23   O97   1.301240 A    
C178  C238  1.405370 A    
C63   C66   1.393451 A    
C199  C211  1.407945 A    
C206  C222  1.395710 A    
N72   O195  1.301168 A    
C60   N38   1.436968 S    
C108  C117  1.426511 A    
N47   O146  1.301001 A    
C196  C263  1.424408 A    
C55   C87   1.412558 A    
C154  H22   1.082834 S    
Zn8   O50   1.949708 S    
C62   N36   1.439056 S    
C53   C85   1.402227 A    
C81   N15   1.435759 S    
C181  H9    1.082597 S    
C158  C186  1.401265 A    
C96   C97   1.412856 A    
N62   O176  1.300434 A    
C183  H11   1.082853 S    
N33   O117  1.301479 A    
N53   O158  1.300898 A    
Zn5   O1    1.956836 S    
Zn3   O45   1.940889 S    
N32   O116  1.301175 A    
C266  H50   1.076594 S    
Zn4   O46   1.940890 S    
N10   O71   1.300804 A    
C28   C60   1.401983 A    
Zn11  O26   1.942358 S    
C20   C130  1.456659 S    
C50   C82   1.410744 A    
C59   N37   1.435673 S    
O35   C23   1.266874 A    
C274  H58   1.075935 S    
C161  C177  1.396493 A    
Zn16  O1    1.952392 S    
C61   N35   1.433606 S    
N3    C187  1.442314 S    
Zn12  O1    1.974055 S    
C92   C101  1.428104 A    
C63   N33   1.437342 S    
C167  C183  1.396051 A    
C59   C70   1.398644 A    
Zn4   O13   1.884853 S    
C154  C170  1.395374 A    
C139  N3    1.370529 A    
Zn16  O21   1.943450 S    
Zn5   O16   1.886175 S    
C201  C217  1.395738 A    
N50   O152  1.300832 A    
Zn6   O15   1.886175 S    
N15   O81   1.301189 A    
N41   O133  1.301419 A    
N72   O196  1.299358 A    
C232  H48   1.083508 S    
O12   C4    1.283195 A    
C141  O57   1.349699 S    
N22   O95   1.300854 A    
C117  C123  1.433193 A    
C53   N69   1.428552 S    
N49   O150  1.299254 A    
C21   C131  1.469296 S    
N8    C192  1.437005 S    
C64   N34   1.439320 S    
O7    C3    1.284260 A    
C255  C263  1.421055 A    
C95   C98   1.423440 A    
C92   C124  1.431650 A    
C40   N56   1.441754 S    
N58   O168  1.299395 A    
O44   C22   1.284332 A    
N5    C189  1.441697 S    
C36   C93   1.422707 A    
C48   C80   1.403250 A    
N36   O124  1.301160 A    
C242  C245  1.423485 A    
C26   N42   1.429445 S    
Zn9   O24   1.956346 S    
Zn10  O23   1.956344 S    
C149  N5    1.370335 A    
O23   C11   1.277603 A    
C164  H32   1.082816 S    
N59   O169  1.301372 A    
C142  C206  1.405462 A    
Zn12  O25   1.942357 S    
C97   C129  1.434619 A    
C26   C103  1.437544 A    
Zn7   O49   1.949709 S    
C152  N8    1.368465 A    
C223  C276  1.390228 A    
Zn9   O4    1.944975 S    
O15   C7    1.285066 A    
C95   C127  1.432682 A    
Zn10  O3    1.944977 S    
O25   C13   1.281926 A    
C30   C62   1.408322 A    
N26   O104  1.301130 A    
C44   N60   1.431017 S    
C166  C190  1.403156 A    
C78   N20   1.439649 S    
C137  N1    1.368678 A    
C244  C260  1.421383 A    
C158  C174  1.395713 A    
C252  C264  1.420945 A    
C175  H3    1.083199 S    
O18   C6    1.289347 A    
C250  C274  1.416286 A    
C62   C67   1.394943 A    
Zn9   O31   1.946876 S    
C251  C263  1.421015 A    
N63   O178  1.301714 A    
Zn10  O32   1.946877 S    
O10   C2    1.292839 A    
Zn7   O18   1.895568 S    
Zn11  O29   1.940889 S    
C140  O56   1.349672 S    
N48   O147  1.299522 A    
C19   C129  1.471567 S    
C146  O62   1.349676 S    
C165  H25   1.082778 S    
C39   C90   1.440263 A    
C247  C259  1.421331 A    
C112  C113  1.411116 A    
C1    C240  1.476678 S    
C217  H33   1.083505 S    
N39   O130  1.301139 A    
C110  C132  1.417179 A    
C35   C94   1.431476 A    
C100  C132  1.418744 A    
C193  C205  1.407952 A    
Zn1   O1    1.944975 S    
C33   C96   1.426944 A    
C141  N1    1.368707 A    
C144  C208  1.407174 A    
C151  C215  1.405499 A    
C221  H37   1.083505 S    
C69   N27   1.436468 S    
C33   N49   1.441107 S    
C226  C269  1.390298 A    
C145  N5    1.370269 A    
C160  C188  1.403161 A    
C232  C267  1.389647 A    
C245  C269  1.415780 A    
N69   O190  1.301017 A    
N64   O179  1.299552 A    
O21   C9    1.270521 A    
C167  C191  1.401948 A    
C115  C125  1.439079 A    
N30   O112  1.301184 A    
C218  C277  1.389313 A    
C103  C135  1.427964 A    
C113  C127  1.426883 A    
C167  H27   1.082817 S    
C278  H62   1.075971 S    
O49   C15   1.264879 A    
C17   C135  1.462128 S    
C101  C133  1.433886 A    
C144  O60   1.349581 S    
Zn3   O42   1.942358 S    
C27   C59   1.405185 A    
C245  C257  1.421019 A    
N25   O102  1.301056 A    
N24   O99   1.300893 A    
C7    C234  1.474850 S    
C46   N62   1.442017 S    
C157  H17   1.082848 S    
N54   O159  1.301174 A    
C85   N11   1.437747 S    
Zn7   O38   1.943449 S    
N39   O129  1.301399 A    
C146  C210  1.406658 A    
O32   C20   1.261596 A    
C253  C277  1.416318 A    
C221  C274  1.389299 A    
C198  C257  1.424211 A    
O39   C17   1.267848 A    
N12   O75   1.301124 A    
N43   O138  1.298598 A    
N71   O193  1.301494 A    
O26   C14   1.286216 A    
N35   O122  1.301166 A    
N11   O74   1.300966 A    
C140  N4    1.370478 A    
C250  C253  1.423414 A    
N61   O173  1.301566 A    
C174  H2    1.083069 S    
C71   N25   1.438806 S    
C163  C179  1.395153 A    
C154  C186  1.401110 A    
C164  C180  1.396414 A    
C228  C271  1.389391 A    
C270  H54   1.076587 S    
Zn8   O4    1.952392 S    
N16   O84   1.301080 A    
C73   N23   1.435429 S    
C147  O63   1.349669 S    
C253  C261  1.421561 A    
N46   O143  1.300016 A    
C209  C225  1.396796 A    
C138  O54   1.349689 S    
C227  C272  1.389671 A    
C27   N43   1.430330 S    
C35   N51   1.429914 S    
C89   C104  1.426282 A    
C211  C227  1.396095 A    
N20   O92   1.300605 A    
C90   C103  1.417594 A    
C212  C228  1.395910 A    
C53   C108  1.435769 A    
O13   C5    1.292746 A    
C66   N32   1.438749 S    
C42   N58   1.434547 S    
C54   C107  1.430531 A    
C139  C203  1.406977 A    
C227  H43   1.083499 S    
N57   O166  1.300858 A    
N29   O109  1.301215 A    
C76   C85   1.392968 A    
C42   C74   1.410306 A    
C35   C67   1.400995 A    
Zn7   O3    1.952390 S    
C169  C233  1.405824 A    
O20   C8    1.284703 A    
C243  C267  1.416212 A    
N64   O180  1.301247 A    
C244  C268  1.416026 A    
C178  H14   1.083078 S    
C241  C257  1.421070 A    
C64   C65   1.403206 A    
C204  C220  1.396878 A    
N66   O184  1.300714 A    
Zn4   O41   1.942357 S    
N27   O105  1.301161 A    
C87   N9    1.432805 S    
C198  C210  1.407702 A    
C51   C110  1.424416 A    
C229  H45   1.083454 S    
C74   C87   1.405563 A    
N37   O125  1.301131 A    
C163  H31   1.082857 S    
C30   C99   1.437946 A    
C200  C216  1.408081 A    
C49   C112  1.435765 A    
C207  C223  1.396862 A    
C199  C260  1.424007 A    
C31   C98   1.437955 A    
N7    C191  1.438655 S    
C50   C111  1.424129 A    
C67   N29   1.436684 S    
Zn6   O52   1.951271 S    
N56   O163  1.302034 A    
C176  C236  1.405391 A    
C51   N67   1.444098 S    
N65   O182  1.301054 A    
C143  O59   1.349633 S    
C155  C187  1.404735 A    
C54   C86   1.406091 A    
C252  C255  1.423380 A    
Zn1   O47   1.946876 S    
C268  H52   1.076185 S    
Zn2   O48   1.946877 S    
C29   N45   1.441862 S    
C8    C233  1.474809 S    
N17   O86   1.300951 A    
C41   C120  1.433523 A    
C51   C83   1.409636 A    
C251  C256  1.423843 A    
Zn6   O2    1.956841 S    
C203  C219  1.397011 A    
C42   C119  1.419487 A    
C52   C84   1.402417 A    
C119  C121  1.416435 A    
C164  C192  1.401184 A    
C265  H49   1.076589 S    
C80   C81   1.395272 A    
C46   C78   1.408564 A    
C254  C278  1.416241 A    
C162  C178  1.396243 A    
C2    C239  1.475825 S    
C40   C72   1.403292 A    
N60   O171  1.301141 A    
C4    C237  1.462004 S    
Zn15  O10   1.895568 S    
C243  C259  1.421496 A    
C56   C105  1.436548 A    
C111  C129  1.415459 A    
N6    C190  1.441515 S    
N21   O93   1.300747 A    
C179  H15   1.082899 S    
Zn12  O5    1.884853 S    
C272  H56   1.076125 S    
C78   C83   1.404661 A    
Zn13  O8    1.886175 S    
Zn14  O7    1.886175 S    
Zn3   O14   1.884853 S    
O29   C17   1.272810 A    
C60   C69   1.392177 A    
C34   C66   1.404230 A    
Zn15  O22   1.943449 S    
C61   C68   1.406506 A    
C169  H5    1.082877 S    
N19   O89   1.300911 A    
C202  C218  1.395726 A    
C102  C134  1.423744 A    
N71   O194  1.300611 A    
C48   C113  1.433729 A    
C94   C126  1.423865 A    
O24   C12   1.259421 A    
N45   O141  1.301511 A    
C88   N10   1.435553 S    
C45   N61   1.429755 S    
C246  C270  1.415739 A    
C215  C231  1.396006 A    
N59   O170  1.299768 A    
C155  H23   1.082763 S    
C23   C133  1.462235 S    
C241  C265  1.415698 A    
C195  C264  1.424415 A    
N18   O88   1.301234 A    
C38   C70   1.406385 A    
C76   N22   1.437715 S    
C149  C213  1.406570 A    
C56   C88   1.406179 A    
C279  H63   1.076642 S    
C31   N47   1.431407 S    
C143  N3    1.370414 A    
C224  H40   1.083448 S    
C114  C128  1.424996 A    
C137  C201  1.405490 A    
C244  C247  1.423078 A    
C18   C136  1.497836 S    
O47   C9    1.258343 A    
C107  C133  1.421682 A    
C170  C234  1.405849 A    
N28   O107  1.301215 A    
C173  H1    1.082978 S    
N67   O186  1.300673 A    
C231  C268  1.389316 A    
C180  C240  1.406602 A    
C12   C122  1.469998 S    
C152  O68   1.349694 S    
C195  C203  1.407547 A    
C194  C206  1.408033 A    
O19   C7    1.285089 A    
O33   C21   1.251017 A    
Zn2   O2    1.944977 S    
C222  C273  1.389205 A    
C143  C207  1.406684 A    
C269  H53   1.076593 S    
C41   C73   1.401623 A    
N23   O98   1.301009 A    
C256  C280  1.415741 A    
Zn11  O6    1.884853 S    
C165  C181  1.396745 A    
C52   N68   1.434524 S    
C31   C63   1.402033 A    
C44   C76   1.403401 A    
N14   O80   1.301143 A    
C255  C279  1.415618 A    
C29   C61   1.413019 A    
N11   O73   1.301207 A    
C145  C209  1.406545 A    
C199  C215  1.407828 A    
C242  C266  1.415717 A    
N53   O157  1.300574 A    
C254  C262  1.421506 A    
C43   N59   1.433159 S    
C184  H12   1.081785 S    
C137  O53   1.349701 S    
C248  C272  1.416193 A    
C151  N7    1.369141 A    
C200  C212  1.408161 A    
C249  C273  1.416252 A    
Zn8   O17   1.895568 S    
C118  C124  1.421337 A    
N68   O187  1.301104 A    
C246  C258  1.421008 A    
C89   C121  1.426789 A    
C226  H42   1.083458 S    
C93   C100  1.398163 A    
O36   C24   1.264565 A    
C84   N14   1.436342 S    
C56   N72   1.431499 S    
C94   C99   1.417093 A    
C5    C236  1.476487 S    
C249  C261  1.421519 A    
N38   O127  1.300782 A    
C193  C201  1.407959 A    
C222  H38   1.083508 S    
C148  O64   1.349677 S    
C144  N4    1.370399 A    
C159  H19   1.082743 S    
C194  C261  1.423989 A    
C166  H26   1.082786 S    
O30   C18   1.281441 A    
