data_mof_unit_443.cif
_audit_creation_date              2012-12-11T16:13:08-0500
_audit_creation_method            fapswitch 2.2
_symmetry_space_group_name_H-M    P1
_symmetry_Int_Tables_number       1
_space_group_crystal_system       triclinic
_cell_length_a                    23.354102
_cell_length_b                    13.640541
_cell_length_c                    28.489874
_cell_angle_alpha                 89.922272
_cell_angle_beta                  90.018573
_cell_angle_gamma                 89.951021
_cell_volume                      9075.79578407

loop_
_atom_site_label
_atom_site_type_symbol
_atom_type_description
_atom_site_fract_x
_atom_site_fract_y
_atom_site_fract_z
_atom_type_partial_charge
C1    C     C_R   0.284466 0.005204 0.815900 0.538374
C2    C     C_3   0.488751 0.743707 0.974837 0.174918
C3    C     C_R   0.205677 0.033297 0.525836 -0.106918
C4    C     C_R   0.297431 0.538981 0.523411 0.291660
C5    C     C_R   0.702749 0.538660 0.476658 0.291786
C6    C     C_R   0.797392 0.038893 0.523416 0.291668
C7    C     C_R   0.202783 0.038601 0.476657 0.291769
C8    C     C_R   0.255709 0.593234 0.547704 0.044974
C9    C     C_R   0.744348 0.593078 0.452308 0.044881
C10   C     C_R   0.755715 0.093266 0.547699 0.044997
C11   C     C_R   0.244335 0.093138 0.452316 0.044811
C12   C     C_R   0.249455 0.579014 0.450179 -0.011883
C13   C     C_3   0.011460 0.244046 0.025509 0.177243
C14   C     C_R   0.750478 0.579295 0.549840 -0.012090
C15   C     C_R   0.749469 0.079035 0.450174 -0.011857
C16   C     C_R   0.250453 0.079341 0.549849 -0.012107
C17   C     C_1   0.242191 0.562677 0.401041 -0.054716
C18   C     C_1   0.757759 0.563032 0.598983 -0.055142
C19   C     C_1   0.742198 0.062690 0.401037 -0.054678
C20   C     C_1   0.257744 0.063059 0.598990 -0.055119
C21   C     C_1   0.260841 0.610209 0.597066 -0.006487
C22   C     C_1   0.739213 0.609951 0.402935 -0.006011
C23   C     C_1   0.760845 0.110228 0.597063 -0.006462
C24   C     C_3   0.988756 0.243700 0.974836 0.174931
C25   C     C_1   0.239205 0.109986 0.402941 -0.006095
C26   C     C_1   0.232277 0.542037 0.360977 -0.005115
C27   C     C_1   0.767700 0.542323 0.639051 -0.005918
C28   C     C_1   0.732281 0.042044 0.360975 -0.005097
C29   C     C_1   0.267693 0.042337 0.639055 -0.005906
C30   C     C_R   0.284440 0.007179 0.684006 0.547498
C31   C     C_R   0.715554 0.007099 0.316012 0.548846
C32   C     C_R   0.784440 0.507178 0.684005 0.547495
C33   C     C_R   0.215554 0.507099 0.316012 0.548840
C34   C     C_R   0.445893 0.825206 0.684434 0.544071
C35   C     C_1   0.518332 0.842060 0.096859 0.045611
C36   C     C_R   0.554105 0.825165 0.315561 0.544103
C37   C     C_R   0.945893 0.325206 0.684434 0.544070
C38   C     C_R   0.054105 0.325165 0.315561 0.544097
C39   C     C_R   0.274370 0.674398 0.682818 0.553146
C40   C     C_R   0.725648 0.674330 0.317169 0.553682
C41   C     C_R   0.774370 0.174398 0.682818 0.553141
C42   C     C_R   0.225648 0.174331 0.317169 0.553679
C43   C     C_3   0.442944 0.911539 0.979534 -0.109214
C44   C     C_3   0.554611 0.913297 0.020984 -0.110204
C45   C     C_3   0.942919 0.411509 0.979540 -0.109220
C46   C     C_1   0.480156 0.842126 0.903598 0.039870
C47   C     C_3   0.054581 0.413317 0.020993 -0.110206
C48   C     C_3   0.551434 0.900429 0.965435 0.482937
C49   C     C_3   0.446036 0.898100 0.035017 0.481440
C50   C     C_3   0.051411 0.400460 0.965443 0.482911
C51   C     C_3   0.946007 0.398041 0.035022 0.481416
C52   C     C_1   0.531502 0.833275 0.137331 -0.003190
C53   C     C_1   0.467560 0.833083 0.863027 -0.007138
C54   C     C_1   0.031492 0.333271 0.137334 -0.003187
C55   C     C_1   0.967556 0.333085 0.863029 -0.007117
C56   C     C_3   0.437422 0.999993 0.104063 -0.131471
C57   C     C_1   0.018316 0.342050 0.096864 0.045630
C58   C     C_3   0.559637 0.002942 0.896415 -0.124270
C59   C     C_3   0.937327 0.499876 0.104082 -0.131458
C60   C     C_3   0.059594 0.502996 0.896429 -0.124255
C61   C     C_3   0.150551 0.724929 0.938451 -0.065251
C62   C     C_3   0.853975 0.723788 0.050493 -0.023613
C63   C     C_3   0.650545 0.224919 0.938445 -0.065255
C64   C     C_3   0.353971 0.223757 0.050490 -0.023629
C65   C     C_3   0.556179 0.634556 0.555487 -0.078059
C66   C     C_3   0.444711 0.633705 0.444878 -0.077636
C67   C     C_3   0.056123 0.134498 0.555483 -0.077977
C68   C     C_1   0.980148 0.342129 0.903601 0.039919
C69   C     C_3   0.944641 0.133777 0.444873 -0.077593
C70   C     C_2   0.511713 0.025845 0.448045 0.287778
C71   C     C_2   0.487101 0.025886 0.551492 0.287725
C72   C     C_2   0.011790 0.525841 0.448054 0.287769
C73   C     C_2   0.987178 0.525891 0.551502 0.287715
C74   C     C_3   0.337586 0.395042 0.546811 -0.105171
C75   C     C_3   0.662849 0.394413 0.453701 -0.104678
C76   C     C_3   0.837416 0.894846 0.546818 -0.105155
C77   C     C_3   0.163184 0.894239 0.453555 -0.104682
C78   C     C_3   0.650647 0.878694 0.944791 -0.083542
C79   C     C_1   0.279915 0.684785 0.868549 0.005572
C80   C     C_3   0.347099 0.874254 0.056316 -0.044719
C81   C     C_3   0.150629 0.378784 0.944801 -0.083546
C82   C     C_3   0.847070 0.374094 0.056303 -0.044773
C83   C     C_2   0.614536 0.903076 0.041437 0.195822
C84   C     C_2   0.383470 0.899889 0.958580 0.200434
C85   C     C_2   0.114508 0.403129 0.041447 0.195837
C86   C     C_2   0.883450 0.399843 0.958581 0.200447
C87   C     C_3   0.487459 0.604041 0.927458 -0.140846
C88   C     C_3   0.515971 0.602854 0.071825 -0.141991
C89   C     C_3   0.987480 0.104062 0.927438 -0.140868
C90   C     C_1   0.720342 0.684868 0.131440 0.020991
C91   C     C_3   0.016003 0.102825 0.071806 -0.141973
C92   C     C_2   0.346914 0.512332 0.950578 0.206053
C93   C     C_2   0.658272 0.502875 0.052059 0.249100
C94   C     C_2   0.846925 0.012350 0.950582 0.206076
C95   C     C_2   0.158275 0.002862 0.052059 0.249095
C96   C     C_3   0.376979 0.512825 0.069231 -0.050151
C97   C     C_3   0.621976 0.504301 0.934467 -0.059010
C98   C     C_3   0.876979 0.012857 0.069242 -0.050180
C99   C     C_3   0.121974 0.004294 0.934465 -0.059027
C100  C     C_3   0.131608 0.681362 0.063185 -0.068579
C101  C     C_1   0.779914 0.184781 0.868548 0.005602
C102  C     C_3   0.791024 0.795520 0.914626 -0.063758
C103  C     C_3   0.631591 0.181311 0.063172 -0.068585
C104  C     C_3   0.291003 0.295524 0.914619 -0.063748
C105  C     C_R   0.715703 0.005996 0.184350 0.541272
C106  C     C_1   0.220341 0.184866 0.131439 0.020997
C107  C     C_R   0.303702 0.566473 0.979222 -0.016223
C108  C     C_R   0.697396 0.562410 0.021945 -0.019118
C109  C     C_R   0.803706 0.066479 0.979223 -0.016189
C110  C     C_R   0.197393 0.062405 0.021944 -0.019134
C111  C     C_R   0.296797 0.546789 0.027646 0.267631
C112  C     C_R   0.703213 0.542749 0.973441 0.271456
C113  C     C_R   0.796799 0.046797 0.027647 0.267640
C114  C     C_R   0.203209 0.042748 0.973440 0.271482
C115  C     C_R   0.221777 0.671188 0.032751 0.235504
C116  C     C_R   0.784466 0.505204 0.815900 0.538378
C117  C     C_R   0.774978 0.671901 0.966371 0.225387
C118  C     C_R   0.721765 0.171172 0.032747 0.235469
C119  C     C_R   0.274968 0.171910 0.966369 0.225401
C120  C     C_R   0.228164 0.691133 0.984849 0.292623
C121  C     C_R   0.769777 0.691683 0.014363 0.280580
C122  C     C_R   0.728156 0.191122 0.984846 0.292567
C123  C     C_R   0.269770 0.191685 0.014361 0.280602
C124  C     C_R   0.269017 0.639344 0.958163 -0.073869
C125  C     C_R   0.730287 0.638830 0.041855 -0.072321
C126  C     C_R   0.769015 0.139340 0.958162 -0.073877
C127  C     C_R   0.215704 0.505996 0.184350 0.541279
C128  C     C_R   0.230282 0.138829 0.041854 -0.072365
C129  C     C_R   0.256001 0.599052 0.053880 -0.042343
C130  C     C_R   0.742637 0.596224 0.946420 -0.039260
C131  C     C_R   0.755995 0.099047 0.053878 -0.042384
C132  C     C_R   0.242630 0.096229 0.946418 -0.039250
C133  C     C_R   0.445183 0.824167 0.816894 0.529527
C134  C     C_R   0.554621 0.824279 0.183219 0.531106
C135  C     C_R   0.945182 0.324167 0.816894 0.529531
C136  C     C_R   0.054619 0.324279 0.183220 0.531112
C137  C     C_1   0.246097 0.572370 0.101866 0.014866
C138  C     C_3   0.491100 0.850226 0.954311 0.024976
C139  C     C_1   0.753622 0.567977 0.898841 0.016998
C140  C     C_1   0.746093 0.072367 0.101864 0.014861
C141  C     C_1   0.253618 0.067980 0.898840 0.016996
C142  C     C_1   0.275139 0.663170 0.909221 -0.010007
C143  C     C_1   0.724953 0.663173 0.090783 0.001465
C144  C     C_1   0.775138 0.163166 0.909220 -0.009973
C145  C     C_1   0.224949 0.163170 0.090783 0.001439
C146  C     C_1   0.234548 0.544914 0.140697 0.011064
C147  C     C_1   0.765760 0.541963 0.859952 0.012099
C148  C     C_1   0.734546 0.044912 0.140696 0.011066
C149  C     C_3   0.507180 0.850087 0.046173 0.028681
C150  C     C_1   0.265758 0.041965 0.859951 0.012093
C151  C     C_1   0.471079 0.833720 0.639065 0.006989
C152  C     C_1   0.528861 0.833544 0.360907 0.007429
C153  C     C_1   0.971083 0.333719 0.639066 0.006983
C154  C     C_1   0.028864 0.333545 0.360909 0.007423
C155  C     C_R   0.500360 0.754161 0.524632 0.285181
C156  C     C_R   0.499917 0.754064 0.475499 0.284986
C157  C     C_R   0.000340 0.254157 0.524631 0.285161
C158  C     C_R   0.999894 0.254069 0.475498 0.284980
C159  C     C_R   0.502795 0.933527 0.475053 -0.015118
C160  C     C_3   0.991087 0.350226 0.954315 0.024986
C161  C     C_R   0.496529 0.933583 0.524687 -0.015044
C162  C     C_R   0.002837 0.433529 0.475059 -0.015119
C163  C     C_R   0.996572 0.433583 0.524693 -0.015047
C164  C     C_R   0.496798 0.843201 0.549087 -0.063347
C165  C     C_R   0.503023 0.843050 0.450852 -0.063414
C166  C     C_R   0.996810 0.343196 0.549089 -0.063354
C167  C     C_R   0.003031 0.343056 0.450854 -0.063412
C168  C     C_1   0.514235 0.838968 0.401212 -0.026104
C169  C     C_1   0.485647 0.839170 0.598741 -0.026228
C170  C     C_1   0.014240 0.338971 0.401214 -0.026109
C171  C     C_3   0.007163 0.350072 0.046178 0.028693
C172  C     C_1   0.985655 0.339168 0.598743 -0.026245
C173  C     C_1   0.266053 0.633523 0.637405 0.004615
C174  C     C_1   0.733985 0.633303 0.362583 0.005621
C175  C     C_1   0.766055 0.133532 0.637403 0.004617
C176  C     C_1   0.233981 0.133319 0.362586 0.005598
C177  C     C_R   0.210954 0.638881 0.523352 -0.156577
C178  C     C_R   0.788921 0.639107 0.476599 -0.155910
C179  C     C_R   0.711009 0.139032 0.523337 -0.156547
C180  C     C_R   0.288854 0.139295 0.476620 -0.155809
C181  C     C_R   0.285566 0.713932 0.820722 0.563144
C182  C     C_3   0.511454 0.744053 0.025510 0.177237
C183  C     C_R   0.714503 0.713891 0.179258 0.565159
C184  C     C_R   0.785566 0.213931 0.820722 0.563150
C185  C     C_R   0.214503 0.213891 0.179258 0.565167
C186  C     C_R   0.207562 0.631092 0.474731 -0.116864
C187  C     C_R   0.792253 0.631537 0.525234 -0.116138
C188  C     C_R   0.707620 0.131237 0.474716 -0.116800
C189  C     C_R   0.292179 0.131721 0.525255 -0.116015
C190  C     C_R   0.294465 0.533475 0.474240 -0.106728
C191  C     C_R   0.705651 0.533372 0.525839 -0.106967
C192  C     C_R   0.794432 0.033383 0.474245 -0.106765
Cr1   Cr    Cr6+3 0.250680 0.837130 0.748990 1.027137
Cr2   Cr    Cr6+3 0.623910 0.707720 0.250330 1.045148
Cr3   Cr    Cr6+3 0.876090 0.207720 0.749670 1.041106
Cr4   Cr    Cr6+3 0.123910 0.207720 0.250330 1.045148
Cr5   Cr    Cr6+3 0.749320 0.837130 0.251010 1.031299
Cr6   Cr    Cr6+3 0.750680 0.337130 0.748990 1.027128
Cr7   Cr    Cr6+3 0.249320 0.337130 0.251010 1.031296
Cr8   Cr    Cr6+3 0.378160 0.960100 0.750430 1.027541
Cr9   Cr    Cr6+3 0.621840 0.960100 0.249570 1.024510
Cr10  Cr    Cr6+3 0.878160 0.460100 0.750430 1.027551
Cr11  Cr    Cr6+3 0.121840 0.460100 0.249570 1.024511
Cr12  Cr    Cr6+3 0.376090 0.707720 0.749670 1.041098
H1    H     H_    0.178893 0.681160 0.541967 0.128169
H2    H     H_    0.673416 0.492964 0.545177 0.105858
H3    H     H_    0.032196 0.054776 0.043248 0.146523
H4    H     H_    0.354502 0.532325 0.914273 0.086639
H5    H     H_    0.650130 0.523854 0.088137 0.088507
H6    H     H_    0.854517 0.032347 0.914279 0.086648
H7    H     H_    0.150143 0.023827 0.088140 0.088506
H8    H     H_    0.366751 0.571136 0.095219 0.124804
H9    H     H_    0.405669 0.542087 0.041515 0.192341
H10   H     H_    0.400460 0.454089 0.088077 0.114321
H11   H     H_    0.629748 0.563444 0.908255 0.122752
H12   H     H_    0.593922 0.531464 0.963153 0.173378
H13   H     H_    0.826734 0.993001 0.454976 0.106035
H14   H     H_    0.598918 0.444344 0.916277 0.118604
H15   H     H_    0.866751 0.071260 0.095183 0.124855
H16   H     H_    0.905702 0.042007 0.041522 0.192395
H17   H     H_    0.900424 0.954156 0.088143 0.114287
H18   H     H_    0.129748 0.063424 0.908247 0.122738
H19   H     H_    0.093924 0.031473 0.963149 0.173364
H20   H     H_    0.098913 0.944332 0.916281 0.118598
H21   H     H_    0.133970 0.617713 0.087418 0.093975
H22   H     H_    0.114446 0.657872 0.028599 0.112097
H23   H     H_    0.100462 0.733968 0.078319 0.169176
H24   H     H_    0.173482 0.992764 0.545159 0.106059
H25   H     H_    0.774365 0.853086 0.938509 0.146482
H26   H     H_    0.756282 0.768582 0.891252 0.077439
H27   H     H_    0.824008 0.829670 0.891895 0.157019
H28   H     H_    0.633959 0.117653 0.087399 0.093959
H29   H     H_    0.614435 0.157829 0.028583 0.112113
H30   H     H_    0.600438 0.233901 0.078308 0.169157
H31   H     H_    0.274343 0.353094 0.938498 0.146459
H32   H     H_    0.256260 0.268574 0.891249 0.077456
H33   H     H_    0.323983 0.329672 0.891883 0.157004
H34   H     H_    0.453096 0.989729 0.971985 0.139966
H35   H     H_    0.543628 0.991005 0.028829 0.123126
H36   H     H_    0.953059 0.489706 0.972001 0.139965
H37   H     H_    0.043580 0.491016 0.028841 0.123141
H38   H     H_    0.442915 0.720814 0.976990 0.200155
H39   H     H_    0.557751 0.723873 0.023216 0.199228
H40   H     H_    0.942923 0.220785 0.976989 0.200158
H41   H     H_    0.820876 0.681523 0.457927 0.128566
H42   H     H_    0.057761 0.223896 0.023215 0.199222
H43   H     H_    0.424410 0.930769 0.121523 0.149274
H44   H     H_    0.405223 0.055972 0.113740 0.115781
H45   H     H_    0.479166 0.024932 0.118310 0.124040
H46   H     H_    0.573914 0.934299 0.879137 0.150003
H47   H     H_    0.591275 0.060267 0.887181 0.110112
H48   H     H_    0.517870 0.026306 0.881543 0.135121
H49   H     H_    0.924355 0.430614 0.121528 0.149285
H50   H     H_    0.905080 0.555779 0.113751 0.115788
H51   H     H_    0.979044 0.524890 0.118352 0.124054
H52   H     H_    0.678983 0.181403 0.541944 0.128055
H53   H     H_    0.073892 0.434370 0.879148 0.149993
H54   H     H_    0.091214 0.560352 0.887198 0.110117
H55   H     H_    0.017820 0.526327 0.881559 0.135132
H56   H     H_    0.161581 0.727288 0.900592 0.124561
H57   H     H_    0.111765 0.770564 0.943642 0.166875
H58   H     H_    0.138969 0.648411 0.948407 0.086956
H59   H     H_    0.845575 0.672491 0.079988 0.083531
H60   H     H_    0.881760 0.783153 0.064034 0.162095
H61   H     H_    0.877960 0.685895 0.022003 0.162901
H62   H     H_    0.661571 0.227308 0.900586 0.124578
H63   H     H_    0.320773 0.181807 0.457956 0.128524
H64   H     H_    0.611755 0.270538 0.943647 0.166867
H65   H     H_    0.638974 0.148390 0.948390 0.086998
H66   H     H_    0.345565 0.172407 0.079964 0.083490
H67   H     H_    0.381749 0.283102 0.064061 0.162033
H68   H     H_    0.377965 0.185917 0.021990 0.162944
H69   H     H_    0.581006 0.688374 0.576640 0.098596
H70   H     H_    0.578027 0.620665 0.521415 0.176516
H71   H     H_    0.555578 0.564405 0.575215 0.147780
H72   H     H_    0.419635 0.687157 0.423597 0.098905
H73   H     H_    0.422906 0.619688 0.478969 0.176849
H74   H     H_    0.172047 0.664921 0.456319 0.145675
H75   H     H_    0.445673 0.563490 0.425300 0.148260
H76   H     H_    0.080965 0.188292 0.576639 0.098584
H77   H     H_    0.077969 0.120593 0.521411 0.176478
H78   H     H_    0.055500 0.064345 0.575209 0.147860
H79   H     H_    0.919586 0.187261 0.423594 0.098917
H80   H     H_    0.922830 0.119781 0.478964 0.176783
H81   H     H_    0.945575 0.063564 0.425294 0.148288
H82   H     H_    0.496386 0.031752 0.412189 0.096719
H83   H     H_    0.502392 0.032136 0.587335 0.096507
H84   H     H_    0.996465 0.531771 0.412199 0.096733
H85   H     H_    0.827636 0.665639 0.543613 0.145731
H86   H     H_    0.002471 0.532118 0.587346 0.096511
H87   H     H_    0.344651 0.365343 0.510951 0.115133
H88   H     H_    0.295222 0.370961 0.560606 0.111700
H89   H     H_    0.370975 0.363110 0.569944 0.165666
H90   H     H_    0.655468 0.365107 0.489625 0.114960
H91   H     H_    0.705361 0.370164 0.440263 0.112215
H92   H     H_    0.629707 0.362237 0.430480 0.165806
H93   H     H_    0.844485 0.865142 0.510959 0.115160
H94   H     H_    0.795022 0.870862 0.560590 0.111720
H95   H     H_    0.870762 0.862827 0.569965 0.165631
H96   H     H_    0.672140 0.165156 0.456296 0.145487
H97   H     H_    0.156049 0.864689 0.489467 0.114882
H98   H     H_    0.205692 0.870373 0.439953 0.112311
H99   H     H_    0.130011 0.861950 0.430400 0.165757
H100  H     H_    0.680835 0.834373 0.966057 0.157202
H101  H     H_    0.653852 0.956116 0.956610 0.120604
H102  H     H_    0.664931 0.874826 0.907721 0.093878
H103  H     H_    0.315697 0.826872 0.037978 0.182918
H104  H     H_    0.342552 0.949803 0.042064 0.128249
H105  H     H_    0.334964 0.874991 0.093947 0.113263
H106  H     H_    0.180823 0.334481 0.966070 0.157216
H107  H     H_    0.327524 0.165918 0.543643 0.145617
H108  H     H_    0.153818 0.456207 0.956620 0.120596
H109  H     H_    0.164918 0.374924 0.907732 0.093879
H110  H     H_    0.815692 0.326710 0.037941 0.182886
H111  H     H_    0.842508 0.449659 0.042074 0.128279
H112  H     H_    0.834918 0.374770 0.093930 0.113295
H113  H     H_    0.642523 0.966433 0.042089 0.096267
H114  H     H_    0.357468 0.964603 0.952286 0.126024
H115  H     H_    0.142483 0.466502 0.042098 0.096242
H116  H     H_    0.857427 0.464544 0.952313 0.126033
H117  H     H_    0.513150 0.561730 0.901832 0.128920
H118  H     H_    0.326800 0.493187 0.454963 0.105970
H119  H     H_    0.450360 0.635122 0.907915 0.137428
H120  H     H_    0.472638 0.552975 0.955322 0.159809
H121  H     H_    0.491197 0.557009 0.096681 0.128793
H122  H     H_    0.552268 0.634943 0.091922 0.138999
H123  H     H_    0.532152 0.554771 0.043276 0.146495
H124  H     H_    0.013175 0.061784 0.901802 0.128918
H125  H     H_    0.950377 0.135145 0.907902 0.137441
H126  H     H_    0.972667 0.052964 0.955291 0.159802
H127  H     H_    0.991237 0.056940 0.096651 0.128790
H128  H     H_    0.052293 0.134917 0.091911 0.138993
O1    O     O_R   0.237900 0.735050 0.799950 -0.514472
O2    O     O_R   0.566580 0.739640 0.301090 -0.489636
O3    O     O_R   0.933420 0.239640 0.698910 -0.489607
O4    O     O_R   0.066580 0.239640 0.301090 -0.489635
O5    O     O_R   0.323550 0.666510 0.701520 -0.478237
O6    O     O_R   0.676450 0.666510 0.298480 -0.477770
O7    O     O_R   0.823550 0.166510 0.701520 -0.478232
O8    O     O_R   0.176450 0.166510 0.298480 -0.477779
O9    O     O_3   0.334980 0.834990 0.749700 -0.269415
O10   O     O_3   0.665020 0.834990 0.250300 -0.270228
O11   O     O_3   0.834980 0.334990 0.749700 -0.269415
O12   O     O_R   0.762100 0.735050 0.200050 -0.509451
O13   O     O_3   0.165020 0.334990 0.250300 -0.270227
O14   O     O_R   0.256160 0.936210 0.796950 -0.508263
O15   O     O_R   0.743840 0.936210 0.203050 -0.505179
O16   O     O_R   0.756160 0.436210 0.796950 -0.508263
O17   O     O_R   0.243840 0.436210 0.203050 -0.505179
O18   O     O_R   0.333710 0.029860 0.801630 -0.504001
O19   O     O_R   0.666290 0.029860 0.198370 -0.510657
O20   O     O_R   0.833710 0.529860 0.801630 -0.503996
O21   O     O_R   0.166290 0.529860 0.198370 -0.510655
O22   O     O_R   0.425340 0.901920 0.798280 -0.502831
O23   O     O_R   0.737900 0.235050 0.799950 -0.514479
O24   O     O_R   0.574660 0.901920 0.201720 -0.505348
O25   O     O_R   0.925340 0.401920 0.798280 -0.502830
O26   O     O_R   0.074660 0.401920 0.201720 -0.505336
O27   O     O_R   0.433530 0.738890 0.801610 -0.515667
O28   O     O_R   0.566470 0.738890 0.198390 -0.514277
O29   O     O_R   0.933530 0.238890 0.801610 -0.515671
O30   O     O_R   0.066470 0.238890 0.198390 -0.514273
O31   O     O_R   0.323650 0.665810 0.796720 -0.503071
O32   O     O_R   0.676350 0.665810 0.203280 -0.501279
O33   O     O_R   0.823650 0.165810 0.796720 -0.503070
O34   O     O_R   0.262100 0.235050 0.200050 -0.509447
O35   O     O_R   0.176350 0.165810 0.203280 -0.501281
O36   O     O_R   0.237790 0.735800 0.697250 -0.509296
O37   O     O_R   0.762210 0.735800 0.302750 -0.509671
O38   O     O_R   0.737790 0.235800 0.697250 -0.509305
O39   O     O_R   0.262210 0.235800 0.302750 -0.509666
O40   O     O_R   0.256050 0.936910 0.701750 -0.496821
O41   O     O_R   0.743950 0.936910 0.298250 -0.497250
O42   O     O_R   0.756050 0.436910 0.701750 -0.496823
O43   O     O_R   0.243950 0.436910 0.298250 -0.497248
O44   O     O_R   0.333600 0.030610 0.698930 -0.502283
O45   O     O_R   0.425240 0.902610 0.703070 -0.498891
O46   O     O_R   0.666400 0.030610 0.301070 -0.501234
O47   O     O_R   0.833600 0.530610 0.698930 -0.502282
O48   O     O_R   0.166400 0.530610 0.301070 -0.501243
O49   O     O_3   0.440852 0.994909 0.054504 -0.622224
O50   O     O_3   0.555161 0.997508 0.945941 -0.620326
O51   O     O_3   0.940797 0.494833 0.054523 -0.622215
O52   O     O_3   0.055120 0.497546 0.945955 -0.620314
O53   O     O_3   0.195756 0.765478 0.965116 -0.451483
O54   O     O_3   0.802481 0.765421 0.033996 -0.475109
O55   O     O_3   0.695749 0.265466 0.965112 -0.451503
O56   O     O_R   0.574760 0.902610 0.296930 -0.499006
O57   O     O_3   0.302481 0.265411 0.033997 -0.475075
O58   O     O_3   0.499239 0.666073 0.548746 -0.529510
O59   O     O_3   0.501490 0.665900 0.451578 -0.529521
O60   O     O_3   0.999192 0.166066 0.548741 -0.529521
O61   O     O_3   0.001433 0.165907 0.451574 -0.529541
O62   O     O_2   0.538634 0.094218 0.464653 -0.478203
O63   O     O_2   0.459806 0.093835 0.534733 -0.478673
O64   O     O_2   0.038735 0.594183 0.464666 -0.478216
O65   O     O_2   0.959908 0.593873 0.534746 -0.478653
O66   O     O_3   0.342996 0.498019 0.547552 -0.549991
O67   O     O_R   0.925240 0.402610 0.703070 -0.498887
O68   O     O_3   0.657343 0.497383 0.452539 -0.549498
O69   O     O_3   0.842911 0.997810 0.547569 -0.549950
O70   O     O_3   0.157428 0.997173 0.452536 -0.549487
O71   O     O_3   0.595469 0.836135 0.948612 -0.520102
O72   O     O_3   0.402481 0.832263 0.051441 -0.526288
O73   O     O_3   0.095458 0.336194 0.948618 -0.520108
O74   O     O_3   0.902468 0.332159 0.051433 -0.526350
O75   O     O_2   0.632858 0.824838 0.055900 -0.534333
O76   O     O_2   0.363508 0.819407 0.949656 -0.529665
O77   O     O_2   0.132845 0.324902 0.055909 -0.534317
O78   O     O_R   0.074760 0.402610 0.296930 -0.499011
O79   O     O_2   0.863512 0.319358 0.949625 -0.529721
O80   O     O_3   0.522082 0.678219 0.947150 -0.572615
O81   O     O_3   0.479753 0.676331 0.053229 -0.574479
O82   O     O_3   0.022096 0.178233 0.947145 -0.572619
O83   O     O_3   0.979773 0.176298 0.053224 -0.574483
O84   O     O_2   0.374381 0.443954 0.966704 -0.470345
O85   O     O_2   0.634961 0.428968 0.037385 -0.441119
O86   O     O_2   0.874394 0.943975 0.966709 -0.470391
O87   O     O_2   0.134958 0.928964 0.037382 -0.441153
O88   O     O_3   0.327288 0.472251 0.049127 -0.483341
O89   O     O_R   0.433420 0.739640 0.698910 -0.489604
O90   O     O_3   0.673514 0.466642 0.952740 -0.474668
O91   O     O_3   0.827295 0.972269 0.049132 -0.483376
O92   O     O_3   0.173513 0.966639 0.952739 -0.474656
O93   O     O_3   0.185194 0.728477 0.059407 -0.502597
O94   O     O_3   0.816797 0.719131 0.940430 -0.529980
O95   O     O_3   0.685172 0.228446 0.059400 -0.502585
O96   O     O_3   0.316784 0.219148 0.940427 -0.529970

loop_
_geom_bond_atom_site_label_1
_geom_bond_atom_site_label_2
_ccdc_geom_bond_type
Cr12  O5    S    
C86   O79   D    
C80   H103  S    
Cr1   O9    S    
C157  C158  A    
Cr7   O17   S    
C98   H16   S    
Cr3   O11   S    
C40   O37   A    
Cr7   O43   S    
Cr9   O56   S    
C87   H119  S    
C77   H99   S    
C78   H100  S    
C56   H44   S    
C78   O71   S    
C76   O69   S    
C62   H61   S    
C128  C145  S    
C79   C142  T    
C50   O52   S    
C98   H17   S    
C122  O55   S    
C96   H10   S    
C154  C170  T    
C70   C159  S    
C60   H54   S    
C10   C23   S    
C66   H73   S    
C100  O93   S    
C136  O26   A    
C104  H31   S    
C116  O20   A    
C159  C161  A    
C73   H86   S    
C90   C143  T    
C51   O51   S    
Cr8   O9    S    
C99   H18   S    
Cr12  O89   S    
Cr5   O37   S    
C45   C160  S    
C107  C124  A    
C88   H123  S    
C158  C167  A    
C74   H89   S    
C75   O68   S    
C59   H51   S    
C2    C138  S    
C137  C146  T    
C72   O64   D    
C53   C133  S    
C106  C185  S    
C87   O80   S    
C179  C188  A    
C50   C160  S    
C83   H113  S    
C177  C186  A    
C105  O15   A    
C191  H2    S    
C100  H23   S    
C75   H92   S    
C134  O28   A    
C16   C20   S    
C56   H45   S    
Cr12  O27   S    
Cr10  O47   S    
C1    C150  S    
C73   O65   D    
C101  C184  S    
C64   H66   S    
C81   H106  S    
C123  O57   S    
Cr6   O11   S    
C103  H30   S    
C63   O55   S    
C149  C182  S    
C24   O82   S    
Cr1   O1    S    
C127  O17   A    
C156  O59   S    
C48   O71   S    
Cr3   O3    S    
C87   H117  S    
Cr3   O29   S    
C71   C161  S    
C91   H127  S    
C185  O34   A    
C1    O18   A    
C62   H59   S    
C116  C147  S    
C47   C171  S    
C119  C123  A    
Cr2   O6    S    
C94   O86   D    
C94   C109  S    
C91   O83   S    
C65   O58   S    
C48   C138  S    
C119  O96   S    
C104  O96   S    
Cr8   O44   S    
C61   H57   S    
C73   C163  S    
C42   C176  S    
C40   C174  S    
C14   C187  A    
Cr10  O25   S    
C46   C53   T    
C24   H40   S    
Cr12  O31   S    
C83   O75   D    
C69   O61   S    
C74   H87   S    
Cr9   O10   S    
C16   C189  A    
Cr9   O19   S    
C129  C137  S    
C90   C183  S    
C155  C156  A    
C102  H26   S    
C6    O69   S    
Cr11  O13   S    
C97   H14   S    
C5    O68   S    
C61   H56   S    
C68   C160  S    
C3    H24   S    
C44   C48   S    
C110  C128  A    
C103  O95   S    
C166  C172  S    
C59   H49   S    
C52   C134  S    
C183  O32   A    
C67   H77   S    
C44   C83   S    
C112  O90   S    
C182  H39   S    
C85   O77   D    
C56   O49   S    
C121  C125  A    
C185  O35   A    
Cr6   O42   S    
C92   H4    S    
C10   C179  A    
C84   O76   D    
C39   O36   A    
C64   H67   S    
C33   O43   A    
C75   H90   S    
C180  C189  A    
C76   H93   S    
C11   C25   S    
C99   O92   S    
C118  C122  A    
C64   O57   S    
C37   O67   A    
C81   H108  S    
Cr5   O15   S    
Cr12  O9    S    
C31   O46   A    
C32   O42   A    
C97   H12   S    
C113  O91   S    
C75   H91   S    
C114  O92   S    
C118  C131  A    
Cr8   O45   S    
C49   O49   S    
C41   O38   A    
C54   C136  S    
C36   O2    A    
C58   H47   S    
C192  H13   S    
C141  C150  T    
C8    C21   S    
C47   C50   S    
C99   H19   S    
C65   H69   S    
C66   O59   S    
Cr7   O34   S    
C4    C190  A    
C66   H75   S    
C5    C191  A    
C88   H122  S    
C36   C152  S    
C105  C148  S    
C159  C165  A    
C88   H121  S    
C5    C9    A    
C29   C30   S    
Cr10  O11   S    
C85   H115  S    
C37   O3    A    
C26   C33   S    
C86   H116  S    
C82   H111  S    
C115  O93   S    
C133  O27   A    
C89   O82   S    
Cr6   O23   S    
C100  H22   S    
C19   C28   T    
C2    H38   S    
Cr11  O78   S    
C94   H6    S    
C179  H52   S    
Cr11  O48   S    
C41   O7    A    
Cr10  O20   S    
C132  C141  S    
C31   O41   A    
C84   H114  S    
C105  O19   A    
C107  C111  A    
C117  O94   S    
C134  O24   A    
C76   H95   S    
C91   H3    S    
Cr1   O36   S    
C77   H98   S    
C78   H101  S    
C15   C188  A    
C181  O31   A    
C98   O91   S    
C151  C169  T    
C95   H7    S    
C45   C86   S    
C63   H65   S    
C125  C143  S    
C153  C172  T    
C126  C144  S    
C13   H42   S    
C189  H107  S    
C188  H96   S    
C184  O33   A    
C104  H32   S    
C39   O5    A    
C72   C162  S    
C71   O63   D    
C112  C130  A    
Cr6   O16   S    
C3    C16   A    
C186  H74   S    
C54   C57   T    
Cr2   O10   S    
C69   H81   S    
C96   H8    S    
C95   O87   D    
C65   H71   S    
C66   H72   S    
C93   O85   D    
C39   C173  S    
C157  O60   S    
C55   C68   T    
C15   C19   S    
C82   O74   S    
C106  C145  T    
C47   C85   S    
C70   O62   D    
C3    C7    A    
C93   C108  S    
C101  C144  T    
C69   H80   S    
C23   C175  T    
C38   O78   A    
C43   C138  S    
C135  O25   A    
C2    O80   S    
C184  O23   A    
C8    C177  A    
C111  C129  A    
C12   C17   S    
Cr9   O24   S    
C89   H125  S    
C63   H64   S    
C92   O84   D    
C67   O60   S    
C41   C175  S    
C103  H29   S    
Cr8   O22   S    
C98   H15   S    
Cr6   O38   S    
C38   O4    A    
C118  O95   S    
C130  C139  S    
C80   H104  S    
C152  C168  T    
C87   H120  S    
C104  H33   S    
C56   H43   S    
C37   C153  S    
Cr11  O21   S    
C163  C166  A    
C62   H60   S    
C88   O81   S    
C155  O58   S    
C48   O50   S    
C96   H9    S    
C79   C181  S    
C60   H53   S    
C102  O94   S    
C135  O29   A    
C178  H41   S    
C42   O39   A    
C181  O1    A    
C177  H1    S    
Cr10  O67   S    
C12   C186  A    
C182  O81   S    
C74   H88   S    
C178  C187  A    
C81   H109  S    
C36   O56   A    
C4    O66   S    
Cr1   O14   S    
Cr2   O2    S    
C59   O51   S    
Cr4   O8    S    
Cr2   O28   S    
C161  C164  A    
C162  C163  A    
C27   C32   S    
C28   C31   S    
C51   O74   S    
C95   C110  S    
C6    C10   A    
C34   O45   A    
C34   O89   A    
C44   C149  S    
Cr7   O13   S    
C61   O53   S    
C7    O70   S    
Cr4   O13   S    
Cr7   O39   S    
C80   H105  S    
C76   H94   S    
C156  C165  A    
C13   O83   S    
C74   O66   S    
C63   H62   S    
C127  C146  S    
C120  O53   S    
C108  C112  A    
C97   H11   S    
C6    C192  A    
C35   C52   T    
C32   O47   A    
C11   C180  A    
C35   C149  S    
C9    C178  A    
Cr2   O32   S    
C136  O30   A    
C15   C192  A    
C116  O16   A    
C71   H83   S    
C14   C18   S    
C13   C171  S    
C58   H48   S    
C91   H128  S    
C72   H84   S    
C4    C8    A    
C140  C148  T    
C158  O61   S    
C7    C11   A    
C139  C147  T    
C17   C26   T    
C60   H55   S    
Cr5   O41   S    
C61   H58   S    
C58   O50   S    
C9    C22   S    
C45   C51   S    
C133  O22   A    
Cr9   O46   S    
C2    C182  S    
C117  C121  A    
C120  C124  A    
C111  O88   S    
C82   H112  S    
C70   H82   S    
Cr4   O4    S    
C102  H25   S    
C108  C125  A    
C64   H68   S    
C109  C113  A    
C102  H27   S    
C46   C138  S    
C59   H50   S    
C43   C84   S    
C50   O73   S    
C124  C142  S    
C164  C169  S    
C30   O44   A    
C67   H78   S    
C81   O73   S    
C22   C174  T    
C89   H126  S    
C167  C170  S    
C20   C29   T    
Cr5   O10   S    
C80   O72   S    
C183  O12   A    
C47   H37   S    
C43   C49   S    
C77   H97   S    
C131  C140  S    
C78   H102  S    
C77   O70   S    
Cr3   O33   S    
C13   C24   S    
C122  C126  A    
Cr11  O26   S    
C1    O14   A    
C187  H85   S    
C43   H34   S    
C62   O54   S    
C92   C107  S    
C60   O52   S    
C121  O54   S    
Cr8   O18   S    
C119  C132  A    
Cr3   O7    S    
C117  C130  A    
Cr4   O30   S    
C109  C126  A    
C14   C191  A    
C165  C168  S    
C93   H5    S    
C58   H46   S    
C38   C154  S    
C97   O90   S    
C44   H35   S    
C180  H63   S    
C115  C129  A    
C103  H28   S    
C127  O21   A    
C110  C114  A    
C99   H20   S    
C113  C131  A    
C65   H70   S    
C114  C132  A    
C18   C27   T    
Cr4   O35   S    
C157  C166  A    
C33   O48   A    
C34   C151  S    
C24   C160  S    
C155  C164  A    
C12   C190  A    
C21   C173  T    
C49   C149  S    
C51   C171  S    
C45   H36   S    
C25   C176  T    
C123  C128  A    
C69   H79   S    
Cr5   O12   S    
C82   H110  S    
C55   C135  S    
C30   O40   A    
C100  H21   S    
Cr1   O40   S    
C162  C167  A    
C40   O6    A    
C42   O8    A    
C115  C120  A    
C89   H124  S    
C190  H118  S    
C67   H76   S    
C96   O88   S    
C49   O72   S    
C57   C171  S    
