data_mof_unit_2644.cif
_audit_creation_date              2012-12-11T17:28:20-0500
_audit_creation_method            fapswitch 2.2
_symmetry_space_group_name_H-M    P1
_symmetry_Int_Tables_number       1
_space_group_crystal_system       triclinic
_cell_length_a                    24.235703
_cell_length_b                    24.232748
_cell_length_c                    25.641052
_cell_angle_alpha                 90.017537
_cell_angle_beta                  90.014008
_cell_angle_gamma                 89.995776
_cell_volume                      15058.9292433

loop_
_atom_site_label
_atom_site_type_symbol
_atom_type_description
_atom_site_fract_x
_atom_site_fract_y
_atom_site_fract_z
_atom_type_partial_charge
C1    C     C_R   0.629766 0.435182 0.411212 -0.135019
C2    C     C_R   0.370097 0.434834 0.411425 -0.138167
C3    C     C_R   0.617601 0.313424 0.255669 0.526515
C4    C     C_R   0.766112 0.694316 0.618589 0.523080
C5    C     C_R   0.313578 0.382498 0.255545 0.526551
C6    C     C_R   0.696868 0.233586 0.613382 0.510185
C7    C     C_R   0.382448 0.686432 0.255615 0.526514
C8    C     C_R   0.297960 0.632008 0.266151 0.525607
C9    C     C_R   0.765705 0.306371 0.620313 0.502713
C10   C     C_R   0.368035 0.298012 0.266064 0.525694
C11   C     C_R   0.694902 0.765268 0.619712 0.497964
C12   C     C_R   0.702062 0.367895 0.266239 0.525839
C13   C     C_R   0.426390 0.638596 0.572789 -0.136653
C14   C     C_R   0.234875 0.693201 0.621982 0.496226
C15   C     C_R   0.632060 0.702050 0.266225 0.525415
C16   C     C_R   0.306551 0.234930 0.621726 0.495181
C17   C     C_R   0.734360 0.805348 0.118966 0.497860
C18   C     C_R   0.199942 0.126568 0.763593 0.520169
C19   C     C_R   0.805303 0.265729 0.118847 0.497634
C20   C     C_R   0.126275 0.799963 0.763333 0.520807
C21   C     C_R   0.265728 0.194726 0.118753 0.497696
C22   C     C_R   0.799075 0.871050 0.764719 0.533404
C23   C     C_R   0.194678 0.734290 0.118858 0.497773
C24   C     C_R   0.565196 0.370043 0.411481 -0.142604
C25   C     C_R   0.870424 0.201087 0.764811 0.512579
C26   C     C_R   0.814548 0.117442 0.754730 0.524342
C27   C     C_R   0.266968 0.803834 0.113069 0.518860
C28   C     C_R   0.883697 0.817329 0.754177 0.498022
C29   C     C_R   0.196171 0.267019 0.112973 0.518842
C30   C     C_R   0.182993 0.882799 0.753990 0.499758
C31   C     C_R   0.733020 0.196179 0.112969 0.518736
C32   C     C_R   0.117749 0.184352 0.755017 0.498359
C33   C     C_R   0.803903 0.733046 0.113145 0.518962
C34   C     C_R   0.273156 0.343242 0.600589 -0.386093
C35   C     C_R   0.361403 0.426408 0.572737 -0.136183
C36   C     C_R   0.667465 0.599331 0.304504 -0.382948
C37   C     C_R   0.343022 0.726820 0.600492 -0.385347
C38   C     C_R   0.599384 0.332443 0.304531 -0.384817
C39   C     C_R   0.726815 0.655711 0.602380 -0.360966
C40   C     C_R   0.332609 0.400715 0.304411 -0.383211
C41   C     C_R   0.657301 0.272945 0.599355 -0.355387
C42   C     C_R   0.400675 0.667399 0.304467 -0.383187
C43   C     C_R   0.316891 0.614028 0.315063 -0.392554
C44   C     C_R   0.725876 0.345323 0.606530 -0.352950
C45   C     C_R   0.386012 0.316931 0.314991 -0.392487
C46   C     C_R   0.629903 0.565156 0.411446 -0.136959
C47   C     C_R   0.655600 0.725822 0.606069 -0.331766
C48   C     C_R   0.683144 0.385862 0.315161 -0.394235
C49   C     C_R   0.274822 0.654245 0.608719 -0.354044
C50   C     C_R   0.614045 0.683103 0.315111 -0.392483
C51   C     C_R   0.345556 0.274796 0.608382 -0.353002
C52   C     C_R   0.773827 0.844468 0.105047 -0.326520
C53   C     C_R   0.180764 0.108875 0.812595 -0.412610
C54   C     C_R   0.844435 0.226244 0.104965 -0.326147
C55   C     C_R   0.108621 0.819291 0.812315 -0.413539
C56   C     C_R   0.226237 0.155588 0.104900 -0.325445
C57   C     C_R   0.573811 0.361282 0.572386 -0.134859
C58   C     C_R   0.817938 0.888721 0.813800 -0.398540
C59   C     C_R   0.155552 0.773778 0.104977 -0.325562
C60   C     C_R   0.888039 0.182084 0.813864 -0.409284
C61   C     C_R   0.833248 0.099176 0.803702 -0.391440
C62   C     C_R   0.227363 0.843127 0.099043 -0.354013
C63   C     C_R   0.900251 0.832818 0.804316 -0.358912
C64   C     C_R   0.156876 0.227402 0.098973 -0.353959
C65   C     C_R   0.167420 0.899662 0.804002 -0.358982
C66   C     C_R   0.772629 0.156892 0.098937 -0.355385
C67   C     C_R   0.101173 0.168838 0.805107 -0.356305
C68   C     C_R   0.434826 0.629907 0.411447 -0.137995
C69   C     C_R   0.843175 0.772645 0.099082 -0.354466
C70   C     C_3   0.169791 0.365525 0.651016 0.280282
C71   C     C_3   0.111137 0.365768 0.672122 -0.871289
C72   C     C_3   0.762285 0.558172 0.253047 0.285497
C73   C     C_3   0.810410 0.544432 0.217336 -0.857971
C74   C     C_3   0.364414 0.830413 0.651363 0.281125
C75   C     C_3   0.364455 0.889404 0.671668 -0.871464
C76   C     C_3   0.558231 0.237653 0.252964 0.286067
C77   C     C_3   0.544465 0.189569 0.217184 -0.859132
C78   C     C_3   0.825961 0.648564 0.671712 0.286122
C79   C     C_R   0.129411 0.935033 0.910841 -0.147277
C80   C     C_3   0.886520 0.635251 0.680818 -0.851700
C81   C     C_3   0.237829 0.441904 0.252898 0.285517
C82   C     C_3   0.189718 0.455648 0.217157 -0.857887
C83   C     C_3   0.675339 0.153784 0.571549 0.282185
C84   C     C_3   0.667708 0.091976 0.578950 -0.895811
C85   C     C_3   0.441906 0.762138 0.252960 0.285597
C86   C     C_3   0.455673 0.810233 0.217228 -0.858102
C87   C     C_3   0.205117 0.613150 0.281664 0.258865
C88   C     C_3   0.150042 0.616942 0.253475 -0.833259
C89   C     C_3   0.849097 0.332409 0.588857 0.286464
C90   C     C_R   0.861199 0.073865 0.072115 -0.130999
C91   C     C_3   0.907350 0.349419 0.603868 -0.892554
C92   C     C_3   0.386937 0.205157 0.281550 0.259335
C93   C     C_3   0.383179 0.150082 0.253342 -0.834191
C94   C     C_3   0.688173 0.852737 0.589006 0.297600
C95   C     C_3   0.675353 0.912070 0.604114 -0.885837
C96   C     C_3   0.794901 0.386818 0.281766 0.259055
C97   C     C_3   0.849965 0.383075 0.253577 -0.834086
C98   C     C_3   0.151827 0.667950 0.589190 0.288255
C99   C     C_3   0.092819 0.652768 0.603238 -0.891221
C100  C     C_3   0.613166 0.794898 0.281783 0.259664
C101  C     C_R   0.934688 0.870109 0.911398 -0.148874
C102  C     C_3   0.616962 0.849983 0.253629 -0.835114
C103  C     C_3   0.332068 0.152009 0.588735 0.292533
C104  C     C_3   0.347686 0.093068 0.602648 -0.897577
C105  C     C_3   0.646001 0.812597 0.090828 0.290365
C106  C     C_3   0.587260 0.825693 0.107613 -0.878220
C107  C     C_3   0.291250 0.099652 0.777871 0.270204
C108  C     C_3   0.346564 0.100130 0.749906 -0.847845
C109  C     C_3   0.812497 0.354110 0.090770 0.290530
C110  C     C_3   0.825577 0.412856 0.107592 -0.877859
C111  C     C_3   0.099525 0.708622 0.778106 0.272838
C112  C     C_R   0.361398 0.573786 0.572548 -0.140484
C113  C     C_R   0.073860 0.138815 0.072122 -0.130200
C114  C     C_3   0.099705 0.653121 0.750429 -0.855349
C115  C     C_3   0.354069 0.187519 0.090584 0.290560
C116  C     C_3   0.412826 0.174426 0.107340 -0.877824
C117  C     C_3   0.706219 0.889783 0.779965 0.265031
C118  C     C_3   0.651304 0.886030 0.751489 -0.847094
C119  C     C_3   0.187436 0.645926 0.090692 0.290407
C120  C     C_3   0.174352 0.587175 0.107458 -0.877747
C121  C     C_3   0.894647 0.293071 0.779880 0.270431
C122  C     C_3   0.893460 0.348453 0.752044 -0.846541
C123  C     C_3   0.737916 0.059182 0.752241 0.287183
C124  C     C_R   0.870431 0.064942 0.911005 -0.143981
C125  C     C_3   0.689758 0.045703 0.716458 -0.860769
C126  C     C_3   0.346878 0.826949 0.072218 0.282798
C127  C     C_3   0.408567 0.834826 0.080226 -0.894814
C128  C     C_3   0.964130 0.805387 0.709389 0.265840
C129  C     C_3   0.993128 0.768100 0.670388 -0.842610
C130  C     C_3   0.173025 0.346931 0.072115 0.282626
C131  C     C_3   0.165128 0.408627 0.080117 -0.894320
C132  C     C_3   0.199067 0.962859 0.709734 0.267944
C133  C     C_3   0.237868 0.989833 0.670783 -0.834636
C134  C     C_3   0.653094 0.173121 0.072073 0.282406
C135  C     C_R   0.138803 0.926144 0.072134 -0.130145
C136  C     C_3   0.591414 0.165192 0.080066 -0.894631
C137  C     C_3   0.037767 0.201309 0.711000 0.271363
C138  C     C_3   0.009611 0.241802 0.674388 -0.841476
C139  C     C_3   0.826997 0.653095 0.072291 0.282542
C140  C     C_3   0.834869 0.591402 0.080301 -0.894563
C141  C     C_R   0.065269 0.129768 0.911280 -0.146502
C142  C     C_R   0.926157 0.861199 0.072131 -0.130233
C143  C     C_R   0.138810 0.074021 0.072001 -0.135823
C144  C     C_R   0.870034 0.935129 0.911447 -0.135778
C145  C     C_R   0.925984 0.138818 0.071998 -0.136242
C146  C     C_R   0.064466 0.870311 0.911127 -0.139730
C147  C     C_R   0.861204 0.925994 0.072010 -0.136467
C148  C     C_R   0.435242 0.370264 0.411144 -0.133588
C149  C     C_R   0.129979 0.064815 0.911511 -0.140159
C150  C     C_R   0.074012 0.861195 0.072009 -0.135868
C151  C     C_R   0.935469 0.129579 0.910994 -0.141413
C152  C     C_R   0.251292 0.250468 0.628195 -0.193981
C153  C     C_R   0.667446 0.668406 0.236710 -0.164866
C154  C     C_R   0.250220 0.748560 0.628124 -0.194667
C155  C     C_R   0.668405 0.332540 0.236691 -0.165074
C156  C     C_R   0.749776 0.748883 0.627927 -0.218465
C157  C     C_R   0.332674 0.331675 0.236544 -0.164926
C158  C     C_R   0.750147 0.251095 0.626603 -0.219797
C159  C     C_R   0.573900 0.638671 0.572430 -0.139241
C160  C     C_R   0.331618 0.667355 0.236630 -0.164831
C161  C     C_R   0.750457 0.750226 0.126015 -0.236368
C162  C     C_R   0.167723 0.164169 0.735194 -0.183657
C163  C     C_R   0.750183 0.249635 0.125860 -0.236346
C164  C     C_R   0.163400 0.832391 0.734619 -0.183312
C165  C     C_R   0.249639 0.249856 0.125797 -0.236242
C166  C     C_R   0.832544 0.835452 0.735318 -0.180626
C167  C     C_R   0.249800 0.750375 0.125906 -0.236254
C168  C     C_R   0.834357 0.167915 0.735552 -0.167554
C169  C     C_1   0.216483 0.215839 0.658713 0.125637
C170  C     C_R   0.370249 0.564777 0.411172 -0.134058
C171  C     C_1   0.692619 0.691575 0.191484 0.143043
C172  C     C_1   0.215449 0.783465 0.658427 0.124454
C173  C     C_1   0.691543 0.307423 0.191410 0.142473
C174  C     C_1   0.784503 0.783444 0.658624 0.089806
C175  C     C_1   0.307509 0.308521 0.191284 0.143107
C176  C     C_1   0.783930 0.216301 0.658003 0.131819
C177  C     C_1   0.308458 0.692517 0.191383 0.143098
C178  C     C_1   0.717278 0.715809 0.158316 0.121741
C179  C     C_1   0.191650 0.190181 0.690786 0.127210
C180  C     C_1   0.715766 0.282797 0.158197 0.121504
C181  C     C_R   0.638713 0.426146 0.572275 -0.140451
C182  C     C_1   0.189612 0.808365 0.690344 0.127854
C183  C     C_1   0.282840 0.284287 0.158098 0.121772
C184  C     C_1   0.809095 0.809219 0.690794 0.128352
C185  C     C_1   0.284224 0.717181 0.158205 0.121803
C186  C     C_1   0.808943 0.191585 0.690643 0.135574
C187  C     C_R   0.329500 0.329446 0.598467 0.067555
C188  C     C_R   0.632538 0.632477 0.334923 0.092086
C189  C     C_R   0.329393 0.670419 0.598599 0.067387
C190  C     C_R   0.632532 0.367360 0.334971 0.090948
C191  C     C_R   0.670870 0.670490 0.598115 0.044512
C192  C     C_R   0.564770 0.629740 0.411178 -0.133666
C193  C     C_R   0.367508 0.367547 0.334835 0.092067
C194  C     C_R   0.671065 0.329299 0.597104 0.056457
C195  C     C_R   0.367514 0.632515 0.334893 0.092119
C196  C     C_R   0.828923 0.828867 0.096308 0.046131
C197  C     C_R   0.132442 0.131146 0.834287 0.084335
C198  C     C_R   0.828848 0.171136 0.096220 0.046011
C199  C     C_R   0.130367 0.868072 0.833589 0.085117
C200  C     C_R   0.171124 0.171176 0.096216 0.046112
C201  C     C_R   0.867610 0.868471 0.834478 0.079709
C202  C     C_R   0.171144 0.828885 0.096273 0.046131
C203  C     C_R   0.426187 0.361381 0.572497 -0.137999
C204  C     C_R   0.868576 0.131973 0.834035 0.095346
C205  C     C_R   0.611663 0.388425 0.385124 0.118654
C206  C     C_R   0.371581 0.628537 0.585725 0.118873
C207  C     C_R   0.388520 0.388387 0.385028 0.119383
C208  C     C_R   0.628700 0.628490 0.585452 0.119003
C209  C     C_R   0.388369 0.611496 0.385066 0.119434
C210  C     C_R   0.628682 0.371302 0.585144 0.120501
C211  C     C_R   0.611492 0.611612 0.385073 0.119219
C212  C     C_R   0.371432 0.371583 0.585630 0.118636
C213  C     C_R   0.110731 0.888568 0.884465 0.116437
C214  C     C_R   0.638650 0.573635 0.572592 -0.135742
C215  C     C_R   0.871070 0.128824 0.084631 0.119747
C216  C     C_R   0.888080 0.888508 0.885175 0.117203
C217  C     C_R   0.128814 0.128947 0.084638 0.119737
C218  C     C_R   0.889053 0.111281 0.884524 0.117207
C219  C     C_R   0.128928 0.871195 0.084660 0.119793
C220  C     C_R   0.111877 0.111284 0.885045 0.116479
C221  C     C_R   0.871214 0.871081 0.084663 0.119894
C222  C     C_R   0.233860 0.304334 0.617111 0.529247
C223  C     C_R   0.686531 0.617575 0.255679 0.526475
C224  C     C_R   0.304010 0.766077 0.616888 0.528546
H1    H     H_    0.667474 0.457234 0.404277 0.081707
H2    H     H_    0.331467 0.455676 0.405321 0.083222
H3    H     H_    0.481322 0.745260 0.268401 0.110157
H4    H     H_    0.416272 0.778446 0.285650 0.071963
H5    H     H_    0.417114 0.828209 0.201138 0.278879
H6    H     H_    0.477966 0.842589 0.239508 0.198511
H7    H     H_    0.482241 0.795957 0.184653 0.260908
H8    H     H_    0.207582 0.648509 0.309453 0.082214
H9    H     H_    0.205975 0.573559 0.303536 0.081067
H10   H     H_    0.145699 0.582275 0.225480 0.255644
H11   H     H_    0.115809 0.614819 0.282178 0.191744
H12   H     H_    0.147240 0.656647 0.232057 0.287108
H13   H     H_    0.446845 0.678126 0.570847 0.088108
H14   H     H_    0.830813 0.366042 0.564794 0.077173
H15   H     H_    0.851702 0.293903 0.565162 0.078973
H16   H     H_    0.926943 0.316403 0.627425 0.271651
H17   H     H_    0.932360 0.356335 0.568186 0.206847
H18   H     H_    0.906278 0.388160 0.627001 0.253249
H19   H     H_    0.351583 0.207598 0.309325 0.081882
H20   H     H_    0.426524 0.206026 0.303441 0.080232
H21   H     H_    0.417842 0.145766 0.225361 0.255725
H22   H     H_    0.385327 0.115838 0.282034 0.191339
H23   H     H_    0.343478 0.147267 0.231907 0.287260
H24   H     H_    0.544365 0.331399 0.405399 0.081848
H25   H     H_    0.661337 0.840978 0.555523 0.077393
H26   H     H_    0.732270 0.850857 0.576718 0.085101
H27   H     H_    0.702702 0.925155 0.636598 0.278970
H28   H     H_    0.682367 0.939724 0.570231 0.206034
H29   H     H_    0.631646 0.915718 0.616665 0.252040
H30   H     H_    0.792477 0.351455 0.309532 0.080101
H31   H     H_    0.794021 0.426407 0.303664 0.081242
H32   H     H_    0.854270 0.417756 0.225614 0.255835
H33   H     H_    0.884210 0.385212 0.282283 0.191460
H34   H     H_    0.852785 0.343380 0.232123 0.286956
H35   H     H_    0.321895 0.446898 0.570764 0.087566
H36   H     H_    0.169639 0.633675 0.565621 0.078269
H37   H     H_    0.150734 0.706365 0.565263 0.084091
H38   H     H_    0.073718 0.686609 0.626130 0.273044
H39   H     H_    0.068357 0.646201 0.567145 0.208169
H40   H     H_    0.092300 0.614250 0.626695 0.252705
H41   H     H_    0.648505 0.792434 0.309588 0.081853
H42   H     H_    0.573567 0.794035 0.303637 0.081065
H43   H     H_    0.582305 0.854332 0.225632 0.255860
H44   H     H_    0.614831 0.884217 0.282353 0.191134
H45   H     H_    0.656667 0.852782 0.232219 0.287186
H46   H     H_    0.668526 0.544300 0.405346 0.083468
H47   H     H_    0.366255 0.170128 0.565286 0.078037
H48   H     H_    0.293712 0.150726 0.564724 0.083051
H49   H     H_    0.314001 0.073651 0.625473 0.272408
H50   H     H_    0.354447 0.068745 0.566503 0.207314
H51   H     H_    0.386194 0.092768 0.626138 0.254763
H52   H     H_    0.647241 0.768494 0.078438 0.078826
H53   H     H_    0.656799 0.839397 0.057049 0.075857
H54   H     H_    0.584227 0.869405 0.120326 0.252121
H55   H     H_    0.558495 0.818847 0.074519 0.204832
H56   H     H_    0.575128 0.798341 0.140395 0.278820
H57   H     H_    0.553539 0.321679 0.570012 0.088168
H58   H     H_    0.286751 0.058968 0.797447 0.092035
H59   H     H_    0.291861 0.133353 0.807516 0.083496
H60   H     H_    0.352567 0.140206 0.729734 0.290470
H61   H     H_    0.380403 0.094332 0.778589 0.193570
H62   H     H_    0.348331 0.066170 0.720912 0.250488
H63   H     H_    0.768394 0.352861 0.078404 0.079072
H64   H     H_    0.839279 0.343327 0.056966 0.076463
H65   H     H_    0.869289 0.415898 0.120285 0.252239
H66   H     H_    0.818703 0.441633 0.074524 0.204952
H67   H     H_    0.798240 0.424973 0.140398 0.278723
H68   H     H_    0.455670 0.668536 0.405352 0.083365
H69   H     H_    0.058840 0.713443 0.797609 0.092647
H70   H     H_    0.133213 0.708067 0.807752 0.083168
H71   H     H_    0.139695 0.646811 0.730186 0.290231
H72   H     H_    0.093833 0.619485 0.779298 0.193639
H73   H     H_    0.065654 0.651338 0.721524 0.251020
H74   H     H_    0.352810 0.231626 0.078238 0.079296
H75   H     H_    0.343249 0.160732 0.056780 0.076878
H76   H     H_    0.415878 0.130710 0.120014 0.252153
H77   H     H_    0.441563 0.181288 0.074244 0.205163
H78   H     H_    0.424983 0.201769 0.140143 0.278703
H79   H     H_    0.167748 0.956138 0.904166 0.087157
H80   H     H_    0.706857 0.929188 0.802158 0.079000
H81   H     H_    0.708636 0.854228 0.807517 0.078808
H82   H     H_    0.648512 0.846211 0.730246 0.286362
H83   H     H_    0.616899 0.888419 0.779991 0.190285
H84   H     H_    0.647246 0.920528 0.723288 0.258169
H85   H     H_    0.231531 0.647168 0.078319 0.079126
H86   H     H_    0.160632 0.656733 0.056905 0.076793
H87   H     H_    0.130647 0.584139 0.120152 0.252234
H88   H     H_    0.181199 0.558412 0.074361 0.205098
H89   H     H_    0.201706 0.575037 0.140249 0.278671
H90   H     H_    0.821646 0.053529 0.069595 0.088138
H91   H     H_    0.935063 0.289427 0.800110 0.091810
H92   H     H_    0.860400 0.292782 0.808938 0.081085
H93   H     H_    0.853546 0.353743 0.731396 0.288899
H94   H     H_    0.898233 0.382325 0.780870 0.191611
H95   H     H_    0.927752 0.350913 0.723455 0.251989
H96   H     H_    0.721865 0.085353 0.784670 0.070622
H97   H     H_    0.754217 0.019692 0.768042 0.108680
H98   H     H_    0.703695 0.018355 0.684310 0.261174
H99   H     H_    0.656916 0.024344 0.738888 0.197811
H100  H     H_    0.672529 0.084320 0.699778 0.280163
H101  H     H_    0.955591 0.831565 0.905088 0.087230
H102  H     H_    0.330308 0.864335 0.052450 0.083382
H103  H     H_    0.340906 0.790281 0.046492 0.076127
H104  H     H_    0.426555 0.797432 0.098601 0.270352
H105  H     H_    0.429021 0.841743 0.042036 0.204302
H106  H     H_    0.416271 0.871099 0.105693 0.257251
H107  H     H_    0.992334 0.811712 0.743115 0.109155
H108  H     H_    0.956078 0.845794 0.689989 0.084316
H109  H     H_    0.966403 0.761410 0.635764 0.251033
H110  H     H_    0.032411 0.787448 0.657627 0.225867
H111  H     H_    0.002378 0.727662 0.688730 0.261281
H112  H     H_    0.321663 0.553817 0.569747 0.087031
H113  H     H_    0.053527 0.178375 0.069601 0.088502
H114  H     H_    0.135643 0.330347 0.052341 0.083477
H115  H     H_    0.209681 0.340963 0.046397 0.076415
H116  H     H_    0.202516 0.426628 0.098499 0.270318
H117  H     H_    0.158190 0.429076 0.041925 0.204559
H118  H     H_    0.128865 0.416326 0.105577 0.257212
H119  H     H_    0.193959 0.991421 0.743375 0.109696
H120  H     H_    0.158405 0.956685 0.690173 0.078444
H121  H     H_    0.243361 0.962654 0.636283 0.254157
H122  H     H_    0.220479 0.029951 0.657810 0.225605
H123  H     H_    0.278673 0.997123 0.689207 0.258637
H124  H     H_    0.831917 0.044016 0.904594 0.082680
H125  H     H_    0.669678 0.135782 0.052223 0.082113
H126  H     H_    0.659030 0.209840 0.046428 0.075949
H127  H     H_    0.573413 0.202540 0.098524 0.270543
H128  H     H_    0.570944 0.158330 0.041861 0.204189
H129  H     H_    0.583747 0.128868 0.105454 0.257048
H130  H     H_    0.009822 0.194101 0.744756 0.107713
H131  H     H_    0.044084 0.161798 0.689485 0.082033
H132  H     H_    0.036129 0.249605 0.639845 0.255496
H133  H     H_    0.969562 0.224509 0.661110 0.228265
H134  H     H_    0.001963 0.281424 0.694912 0.258490
H135  H     H_    0.178358 0.946472 0.069625 0.088522
H136  H     H_    0.864368 0.669643 0.052500 0.083155
H137  H     H_    0.790319 0.659059 0.046584 0.075500
H138  H     H_    0.797488 0.573435 0.098699 0.270349
H139  H     H_    0.841762 0.570917 0.042110 0.204150
H140  H     H_    0.871151 0.583705 0.105750 0.257333
H141  H     H_    0.044313 0.168261 0.904930 0.086874
H142  H     H_    0.946494 0.821640 0.069625 0.088469
H143  H     H_    0.178523 0.054043 0.068998 0.088787
H144  H     H_    0.832208 0.957088 0.904837 0.081353
H145  H     H_    0.945952 0.178537 0.069002 0.088776
H146  H     H_    0.042461 0.832505 0.904636 0.083655
H147  H     H_    0.821488 0.945971 0.069022 0.088429
H148  H     H_    0.457319 0.332569 0.404168 0.081063
H149  H     H_    0.167957 0.043011 0.905269 0.083499
H150  H     H_    0.054035 0.821479 0.069015 0.088772
H151  H     H_    0.957477 0.167330 0.904224 0.084087
H152  H     H_    0.259539 0.384258 0.590606 0.128962
H153  H     H_    0.678902 0.558786 0.318195 0.127634
H154  H     H_    0.383968 0.740538 0.590384 0.129969
H155  H     H_    0.558853 0.320993 0.318229 0.127980
H156  H     H_    0.740418 0.613982 0.595112 0.143067
H157  H     H_    0.321166 0.441254 0.318131 0.127606
H158  H     H_    0.615608 0.259060 0.592369 0.141384
H159  H     H_    0.553902 0.678402 0.569753 0.087687
H160  H     H_    0.441219 0.678825 0.318175 0.127556
H161  H     H_    0.292194 0.585504 0.337375 0.118194
H162  H     H_    0.737975 0.388224 0.605592 0.145014
H163  H     H_    0.414546 0.292231 0.337306 0.117856
H164  H     H_    0.613061 0.738842 0.603281 0.147451
H165  H     H_    0.707835 0.414400 0.337490 0.118354
H166  H     H_    0.262816 0.611309 0.607945 0.144201
H167  H     H_    0.585491 0.707790 0.337415 0.118292
H168  H     H_    0.388451 0.262672 0.607418 0.146048
H169  H     H_    0.761190 0.887191 0.103307 0.149363
H170  H     H_    0.332539 0.542725 0.404216 0.081584
H171  H     H_    0.203822 0.078157 0.833777 0.122461
H172  H     H_    0.887155 0.238875 0.103265 0.149551
H173  H     H_    0.078392 0.795998 0.833860 0.122346
H174  H     H_    0.238873 0.112864 0.103172 0.149483
H175  H     H_    0.793540 0.917784 0.835793 0.119198
H176  H     H_    0.112833 0.761147 0.103240 0.149500
H177  H     H_    0.917011 0.206286 0.836110 0.121942
H178  H     H_    0.821121 0.058933 0.817633 0.127041
H179  H     H_    0.240936 0.885015 0.092614 0.141868
H180  H     H_    0.938886 0.817026 0.819184 0.137173
H181  H     H_    0.678415 0.446144 0.569319 0.087965
H182  H     H_    0.114984 0.240973 0.092556 0.141859
H183  H     H_    0.184454 0.937578 0.819288 0.135968
H184  H     H_    0.759055 0.115006 0.092467 0.141763
H185  H     H_    0.063655 0.186380 0.820726 0.136965
H186  H     H_    0.885056 0.759065 0.092625 0.141915
H187  H     H_    0.174907 0.402465 0.625792 0.090842
H188  H     H_    0.198572 0.368190 0.684909 0.081754
H189  H     H_    0.105099 0.330303 0.698883 0.292791
H190  H     H_    0.103470 0.404598 0.693957 0.200349
H191  H     H_    0.081083 0.362778 0.639526 0.256541
H192  H     H_    0.542712 0.667450 0.404228 0.081787
H193  H     H_    0.745441 0.518743 0.268474 0.110219
H194  H     H_    0.778545 0.583836 0.285750 0.072228
H195  H     H_    0.828353 0.583005 0.201260 0.278939
H196  H     H_    0.842772 0.522174 0.239628 0.198664
H197  H     H_    0.796183 0.517834 0.184751 0.260831
H198  H     H_    0.401920 0.824696 0.627016 0.091190
H199  H     H_    0.366121 0.802156 0.685691 0.080961
H200  H     H_    0.328403 0.896041 0.697588 0.292521
H201  H     H_    0.402793 0.897231 0.694211 0.200458
H202  H     H_    0.362381 0.918953 0.638613 0.256673
H203  H     H_    0.446154 0.321639 0.569706 0.088221
H204  H     H_    0.518819 0.254475 0.268458 0.110036
H205  H     H_    0.583930 0.221351 0.285614 0.068804
H206  H     H_    0.583020 0.171652 0.201033 0.278730
H207  H     H_    0.522247 0.157169 0.239444 0.198082
H208  H     H_    0.517827 0.203837 0.184652 0.261197
H209  H     H_    0.802889 0.608916 0.669306 0.078477
H210  H     H_    0.810724 0.672825 0.705745 0.090359
H211  H     H_    0.910704 0.673975 0.683921 0.289160
H212  H     H_    0.891222 0.611494 0.717576 0.200127
H213  H     H_    0.902830 0.610262 0.647939 0.246239
H214  H     H_    0.678172 0.553209 0.570335 0.089320
H215  H     H_    0.254663 0.481330 0.268371 0.110174
H216  H     H_    0.221555 0.416231 0.285566 0.071853
H217  H     H_    0.171781 0.417077 0.201041 0.278898
H218  H     H_    0.157348 0.477904 0.239436 0.198583
H219  H     H_    0.203959 0.482248 0.184599 0.260900
H220  H     H_    0.712467 0.160200 0.546547 0.076587
H221  H     H_    0.638248 0.170277 0.551226 0.082239
H222  H     H_    0.630980 0.083840 0.603677 0.256791
H223  H     H_    0.661701 0.071777 0.540487 0.204724
H224  H     H_    0.704832 0.074080 0.597890 0.270749
N1    N     N_R   0.592620 0.447430 0.448130 -0.039391
N2    N     N_R   0.407380 0.447430 0.448130 -0.038943
N3    N     N_R   0.447430 0.592620 0.551870 -0.041359
N4    N     N_R   0.552570 0.407380 0.448130 -0.038730
N5    N     N_R   0.407380 0.447430 0.551870 -0.041349
N6    N     N_R   0.592620 0.552570 0.448130 -0.038968
N7    N     N_R   0.552570 0.407380 0.551870 -0.041682
N8    N     N_R   0.447430 0.592620 0.448130 -0.038981
N9    N     N_R   0.092620 0.947430 0.948130 -0.038864
N10   N     N_R   0.907380 0.052570 0.051870 -0.041640
N11   N     N_R   0.947430 0.907380 0.948130 -0.038733
N12   N     N_R   0.407380 0.552570 0.551870 -0.041032
N13   N     N_R   0.052570 0.092620 0.051870 -0.041662
N14   N     N_R   0.907380 0.052570 0.948130 -0.038916
N15   N     N_R   0.092620 0.947430 0.051870 -0.041681
N16   N     N_R   0.052570 0.092620 0.948130 -0.038728
N17   N     N_R   0.947430 0.907380 0.051870 -0.041610
N18   N     N_R   0.092620 0.052570 0.051870 -0.041156
N19   N     N_R   0.907380 0.947430 0.948130 -0.039357
N20   N     N_R   0.947430 0.092620 0.051870 -0.041104
N21   N     N_R   0.052570 0.907380 0.948130 -0.039077
N22   N     N_R   0.907380 0.947430 0.051870 -0.041128
N23   N     N_R   0.447430 0.407380 0.448130 -0.039509
N24   N     N_R   0.092620 0.052570 0.948130 -0.039047
N25   N     N_R   0.052570 0.907380 0.051870 -0.041155
N26   N     N_R   0.947430 0.092620 0.948130 -0.039110
N27   N     N_R   0.552570 0.592620 0.551870 -0.041282
N28   N     N_R   0.407380 0.552570 0.448130 -0.039517
N29   N     N_R   0.592620 0.447430 0.551870 -0.041289
N30   N     N_R   0.552570 0.592620 0.448130 -0.039567
N31   N     N_R   0.447430 0.407380 0.551870 -0.041240
N32   N     N_R   0.592620 0.552570 0.551870 -0.041349
Ni1   Ni    Ni4+2 0.591800 0.500000 0.500000 0.210566
Ni2   Ni    Ni4+2 0.408200 0.500000 0.500000 0.210524
Ni3   Ni    Ni4+2 0.500000 0.408200 0.500000 0.208767
Ni4   Ni    Ni4+2 0.500000 0.591800 0.500000 0.211052
Ni5   Ni    Ni4+2 0.091800 0.000000 0.000000 0.209260
Ni6   Ni    Ni4+2 0.908200 0.000000 0.000000 0.208286
Ni7   Ni    Ni4+2 0.000000 0.908200 0.000000 0.209107
Ni8   Ni    Ni4+2 0.000000 0.091800 0.000000 0.209177
O1    O     O_3   0.178054 0.316949 0.621465 -0.619339
O2    O     O_3   0.817958 0.323541 0.634582 -0.614771
O3    O     O_3   0.385960 0.248332 0.244455 -0.618142
O4    O     O_3   0.677772 0.818067 0.632097 -0.620527
O5    O     O_3   0.751726 0.385839 0.244654 -0.618030
O6    O     O_3   0.182370 0.676078 0.635416 -0.617504
O7    O     O_3   0.614143 0.751738 0.244648 -0.618276
O8    O     O_3   0.323576 0.182340 0.635030 -0.617088
O9    O     O_3   0.682120 0.822803 0.132917 -0.616600
O10   O     O_3   0.248480 0.106892 0.740969 -0.622599
O11   O     O_3   0.822743 0.317976 0.132824 -0.616683
O12   O     O_3   0.721252 0.586152 0.224047 -0.615417
O13   O     O_3   0.107040 0.751088 0.740972 -0.621975
O14   O     O_3   0.317986 0.177284 0.132672 -0.616770
O15   O     O_3   0.749566 0.889273 0.743042 -0.618308
O16   O     O_3   0.177233 0.682041 0.132786 -0.616687
O17   O     O_3   0.889051 0.250315 0.742719 -0.620621
O18   O     O_3   0.779389 0.086396 0.723184 -0.617734
O19   O     O_3   0.321247 0.819357 0.121141 -0.616302
O20   O     O_3   0.914501 0.779988 0.725476 -0.633262
O21   O     O_3   0.180645 0.321305 0.121040 -0.616394
O22   O     O_3   0.222066 0.912185 0.726089 -0.633532
O23   O     O_3   0.316510 0.821923 0.620916 -0.619073
O24   O     O_3   0.678746 0.180643 0.121011 -0.616372
O25   O     O_3   0.088553 0.223919 0.727542 -0.633052
O26   O     O_3   0.819437 0.678767 0.121215 -0.616146
O27   O     O_3   0.586167 0.278732 0.224006 -0.614982
O28   O     O_3   0.820732 0.679014 0.625006 -0.617325
O29   O     O_3   0.278877 0.413936 0.223910 -0.615349
O30   O     O_3   0.681802 0.179078 0.620789 -0.617317
O31   O     O_3   0.413883 0.721111 0.223975 -0.615414
O32   O     O_3   0.248274 0.614096 0.244553 -0.618289

loop_
_geom_bond_atom_site_label_1
_geom_bond_atom_site_label_2
_ccdc_geom_bond_type
C65   H183  S    
C28   O20   S    
C66   H184  S    
C126  C127  S    
C79   H79   S    
C119  H85   S    
C52   C196  A    
C30   C164  A    
C223  O12   S    
C111  O13   S    
N32   Ni1   S    
C75   H202  S    
C6    O30   S    
N3    Ni4   S    
C193  C207  S    
C86   H7    S    
C20   O13   S    
C195  C209  S    
C83   H220  S    
C60   H177  S    
C167  C185  S    
C24   C205  A    
C115  H75   S    
N8    Ni4   S    
C7    C42   A    
C11   O4    S    
C9    O2    S    
C78   H210  S    
C57   H57   S    
C133  H121  S    
C91   H17   S    
C148  H148  S    
C38   C190  A    
C171  C178  T    
C21   O14   S    
C106  H54   S    
C25   C60   A    
C129  H109  S    
C95   H29   S    
C92   O3    S    
C108  H60   S    
C28   C166  A    
C67   H185  S    
C29   C64   A    
C192  N30   A    
C114  H71   S    
C111  H70   S    
C203  H203  S    
C127  H105  S    
C3    O27   S    
C40   H157  S    
C17   C52   A    
C150  N25   A    
C124  C218  A    
C165  C183  S    
C130  O21   S    
C166  C184  S    
C174  C184  T    
C72   H194  S    
C13   H13   S    
C81   H216  S    
C79   N9    A    
C87   O32   S    
C224  O23   S    
C36   C188  A    
C33   C161  A    
C222  O1    S    
C55   H173  S    
C39   C191  A    
C72   O12   S    
N30   Ni4   S    
C189  C206  S    
C119  C120  S    
C85   H4    S    
C84   H222  S    
C16   O8    S    
C128  O20   S    
C93   H21   S    
C82   H218  S    
C97   H32   S    
C23   C167  A    
C64   C200  A    
C120  H87   S    
C109  O11   S    
N22   Ni6   S    
C139  O26   S    
C104  H50   S    
C2    H2    S    
C175  C183  T    
C214  H214  S    
C123  H97   S    
C86   H5    S    
C89   H14   S    
N17   N22   A    
C72   C73   S    
C95   H28   S    
C22   C58   A    
C149  H149  S    
C139  C140  S    
C30   O22   S    
C45   H163  S    
C74   O23   S    
C87   H9    S    
C53   C197  A    
C127  H104  S    
C145  N20   A    
C130  C131  S    
C56   H174  S    
C77   H207  S    
C5    O29   S    
C133  H123  S    
C100  H42   S    
C9    C158  A    
C143  N18   A    
C117  O15   S    
C42   C195  A    
C129  H111  S    
C108  H62   S    
C96   H30   S    
C22   C166  A    
C28   C63   A    
C123  O18   S    
C98   C99   S    
C14   O6    S    
C13   C206  A    
N7    Ni3   S    
C46   C211  A    
C56   C200  A    
C119  O16   S    
C132  H120  S    
C102  H45   S    
N14   Ni6   S    
C16   C51   A    
C49   H166  S    
C50   C188  A    
C128  C129  S    
C113  H113  S    
C85   C86   S    
N14   N26   A    
C23   C59   A    
C214  N32   A    
C125  H98   S    
C135  N15   A    
C12   O5    S    
N6    N30   A    
C59   H176  S    
C132  O22   S    
C159  N27   A    
C141  C220  A    
N20   Ni8   S    
C78   C80   S    
C115  C116  S    
C148  N23   A    
N29   Ni1   S    
C74   H198  S    
C43   C195  A    
C71   H190  S    
C92   C93   S    
C93   H23   S    
C148  C207  A    
C41   H158  S    
C60   C204  A    
C119  H86   S    
C32   C162  A    
C126  H103  S    
C114  H73   S    
C107  C108  S    
C137  H130  S    
C98   O6    S    
C89   C91   S    
C197  C220  S    
N6    Ni1   S    
C159  H159  S    
C47   H164  S    
C68   N8    A    
C192  H192  S    
C149  N24   A    
C145  H145  S    
C46   H46   S    
C65   C199  A    
C14   C154  A    
C94   O4    S    
C94   H26   S    
C6    C158  A    
C147  C221  A    
C97   H34   S    
C84   H224  S    
C40   C193  A    
C25   C168  A    
C151  H151  S    
C55   C199  A    
C146  N21   A    
C168  C186  S    
C37   H154  S    
C51   C187  A    
C13   N3    A    
N2    N23   A    
C144  C216  A    
C78   O28   S    
C135  H135  S    
C204  C218  S    
C181  C210  A    
C103  H47   S    
C35   C212  A    
C201  C216  S    
C139  H136  S    
C27   C62   A    
C194  C210  S    
C83   C84   S    
C104  H51   S    
C147  N22   A    
C118  H83   S    
C10   C45   A    
C162  C179  S    
C153  C171  S    
C19   C163  A    
C131  H118  S    
C10   O3    S    
C66   C198  A    
C136  H127  S    
C17   C161  A    
C32   C67   A    
C80   H212  S    
C19   C54   A    
C76   H205  S    
C110  H65   S    
C122  H94   S    
C73   H196  S    
C102  H43   S    
C101  N11   A    
C22   O15   S    
C107  H58   S    
C44   H162  S    
C100  O7    S    
C150  H150  S    
C88   H11   S    
C27   O19   S    
C63   C201  A    
C125  H100  S    
C199  C213  S    
C25   O17   S    
C58   H175  S    
C54   H172  S    
C69   H186  S    
C75   H201  S    
C124  H124  S    
C107  O10   S    
C7    O31   S    
C33   C69   A    
C19   O11   S    
N1    Ni1   S    
C117  C118  S    
N25   Ni7   S    
C138  H132  S    
C105  H52   S    
C59   C202  A    
C117  H80   S    
N18   Ni5   S    
C170  N28   A    
C34   H152  S    
C34   C187  A    
C76   O27   S    
C15   C153  A    
C30   C65   A    
C99   H39   S    
C48   H165  S    
C142  H142  S    
N13   Ni8   S    
C106  H55   S    
C169  C179  T    
C138  H133  S    
C64   H182  S    
C126  O19   S    
C89   O2    S    
C140  H139  S    
C1    N1    A    
C61   H178  S    
C114  H72   S    
C111  H69   S    
N19   Ni6   S    
C152  C222  A    
C11   C47   A    
C8    C43   A    
C12   C48   A    
C52   H169  S    
C151  N26   A    
C73   H197  S    
C80   H213  S    
C121  H92   S    
C156  C174  S    
C26   C61   A    
C62   H179  S    
C61   C204  A    
C92   H19   S    
C123  C125  S    
C81   H215  S    
C87   H8    S    
C20   C164  A    
C63   H180  S    
C21   C165  A    
N17   Ni7   S    
C29   C165  A    
C131  H116  S    
C62   C202  A    
C90   H90   S    
C18   C53   A    
C124  N14   A    
N27   N32   A    
C53   H171  S    
C109  H64   S    
C91   H16   S    
C70   C71   S    
C85   H3    S    
N27   Ni4   S    
C71   H191  S    
C142  C221  A    
C48   C190  A    
C196  C221  S    
C82   H219  S    
N9    Ni5   S    
C121  O17   S    
C141  N16   A    
C200  C217  S    
C120  H88   S    
N11   N19   A    
C198  C215  S    
C90   C215  A    
C45   C193  A    
N15   N25   A    
C203  N31   A    
C86   H6    S    
C37   C224  A    
C95   H27   S    
N15   Ni5   S    
C83   O30   S    
C7    C160  A    
C173  C180  T    
C181  H181  S    
C77   H206  S    
C143  C217  A    
C78   H209  S    
C96   O5    S    
C190  C205  S    
C133  H122  S    
C91   H18   S    
N1    N4    A    
C3    C155  A    
N28   Ni2   S    
C16   C152  A    
C129  H110  S    
C36   C223  A    
N26   Ni8   S    
C121  C122  S    
C31   O24   S    
N16   Ni8   S    
C4    C156  A    
C117  H81   S    
C99   H40   S    
C5    C157  A    
C68   H68   S    
N8    N28   A    
C127  H106  S    
C46   N6    A    
C170  H170  S    
C8    C160  A    
C15   O7    S    
C112  H112  S    
C1    H1    S    
C23   O16   S    
C76   H204  S    
C57   C210  A    
C208  C214  A    
C123  H96   S    
C107  H59   S    
C103  O8    S    
C67   C197  A    
C33   O26   S    
C21   C56   A    
C141  H141  S    
C72   H193  S    
C29   O21   S    
C88   H10   S    
C105  C106  S    
C38   H155  S    
C142  N17   A    
C147  H147  S    
C134  H125  S    
C120  H89   S    
C112  C206  A    
C4    O28   S    
C109  C110  S    
C152  C169  S    
C18   C162  A    
N2    Ni2   S    
C116  H77   S    
C105  O9    S    
C74   H199  S    
C111  C114  S    
C47   C191  A    
C94   C95   S    
C71   H189  S    
C160  C177  S    
C146  C213  A    
C164  C182  S    
C93   H22   S    
C82   H217  S    
C17   O9    S    
C70   H187  S    
C172  C182  T    
C43   H161  S    
C187  C212  S    
C144  H144  S    
C87   C88   S    
C128  H108  S    
C5    C40   A    
C103  C104  S    
C2    C207  A    
C101  C216  A    
C134  H126  S    
C161  C178  S    
C104  H49   S    
C39   H156  S    
C70   O1    S    
C31   C66   A    
C37   C189  A    
C105  H53   S    
C51   H168  S    
C89   H15   S    
C81   C82   S    
C97   H33   S    
C159  C208  A    
C140  H138  S    
C26   C168  A    
C41   C194  A    
C115  H74   S    
N10   Ni6   S    
C153  C223  A    
C77   H208  S    
C188  C211  S    
N31   Ni3   S    
C14   C49   A    
C49   C189  A    
C100  H41   S    
C112  N12   A    
C177  C185  T    
C35   N5    A    
C15   C50   A    
C108  H61   S    
C145  C215  A    
C58   C201  A    
C132  C133  S    
C6    C41   A    
C118  H84   S    
C3    C38   A    
C116  H78   S    
C131  H117  S    
C1    C205  A    
N21   Ni7   S    
N5    Ni2   S    
C155  C173  S    
C36   H153  S    
C110  H66   S    
N4    Ni3   S    
C122  H95   S    
C73   H195  S    
C132  H119  S    
C102  H44   S    
C31   C163  A    
C20   C55   A    
C68   C209  A    
C113  C217  A    
C83   H221  S    
C88   H12   S    
C101  H101  S    
C130  H114  S    
C74   C75   S    
C125  H99   S    
C35   H35   S    
C76   C77   S    
C99   H38   S    
C134  C136  S    
N3    N12   A    
C181  N29   A    
C128  H107  S    
C144  N19   A    
C90   N10   A    
C149  C220  A    
C69   C196  A    
C202  C219  S    
C139  H137  S    
C192  C211  A    
C81   O29   S    
C4    C39   A    
C150  C219  A    
C135  C219  A    
C96   C97   S    
C126  H102  S    
C100  C102  S    
N24   Ni5   S    
C151  C218  A    
C154  C172  S    
C137  H131  S    
C10   C157  A    
N9    N21   A    
C130  H115  S    
C11   C156  A    
C157  C175  S    
N7    N29   A    
C158  C176  S    
C32   O25   S    
C110  H67   S    
C137  O25   S    
C50   H167  S    
C70   H188  S    
C203  C212  A    
C24   H24   S    
C106  H56   S    
C24   N4    A    
C12   C155  A    
N12   Ni2   S    
C42   H160  S    
C94   H25   S    
C143  H143  S    
C138  H134  S    
C84   H223  S    
C98   H36   S    
C140  H140  S    
C9    C44   A    
C26   O18   S    
C96   H31   S    
N10   N20   A    
N5    N31   A    
C136  H128  S    
C136  H129  S    
C176  C186  T    
C75   H200  S    
C121  H91   S    
C137  C138  S    
C44   C194  A    
C54   C198  A    
C115  O14   S    
C103  H48   S    
C18   O10   S    
C57   N7    A    
N11   Ni7   S    
C92   H20   S    
C98   H37   S    
C146  H146  S    
C170  C209  A    
N13   N18   A    
C85   O31   S    
C8    O32   S    
C118  H82   S    
N23   Ni3   S    
C191  C208  S    
C154  C224  A    
C134  O24   S    
C109  H63   S    
C80   H211  S    
C79   C213  A    
C116  H76   S    
C122  H93   S    
N16   N24   A    
C163  C180  S    
C34   C222  A    
C27   C167  A    
C2    N2    A    
C113  N13   A    
