data_mof_unit_1675.cif
_audit_creation_date              2012-12-11T17:04:52-0500
_audit_creation_method            fapswitch 2.2
_symmetry_space_group_name_H-M    P1
_symmetry_Int_Tables_number       1
_space_group_crystal_system       triclinic
_cell_length_a                    17.588602
_cell_length_b                    24.512693
_cell_length_c                    14.944882
_cell_angle_alpha                 90.052765
_cell_angle_beta                  125.934488
_cell_angle_gamma                 89.857172
_cell_volume                      5217.12669476

loop_
_atom_site_label
_atom_site_type_symbol
_atom_type_description
_atom_site_fract_x
_atom_site_fract_y
_atom_site_fract_z
_atom_type_partial_charge
C1    C     C_R   0.844539 0.650715 0.908330 -0.298383
C2    C     C_R   0.026858 0.501214 0.700129 0.083662
C3    C     C_R   0.766406 0.046540 0.290123 -0.112307
C4    C     C_R   0.819259 0.368487 0.911224 -0.110687
C5    C     C_R   0.183469 0.370024 0.089782 -0.129401
C6    C     C_R   0.350901 0.850366 0.908521 -0.151891
C7    C     C_R   0.686443 0.874707 0.091038 -0.112038
C8    C     C_R   0.939455 0.650698 0.092048 0.543690
C9    C     C_R   0.081215 0.644051 0.913524 0.514915
C10   C     C_R   0.441714 0.154064 0.086612 0.540937
C11   C     C_R   0.561993 0.150188 0.908036 0.554061
C12   C     C_R   0.871950 0.681465 0.000787 -0.086402
C13   C     C_R   0.457672 0.000131 0.281866 0.045675
C14   C     C_R   0.164812 0.661489 0.007350 -0.064082
C15   C     C_R   0.375721 0.182832 0.993039 -0.064146
C16   C     C_R   0.629450 0.180802 0.999342 -0.093778
C17   C     C_3   0.447701 0.388387 0.665265 0.192721
C18   C     C_3   0.433941 0.403602 0.754310 -0.267901
C19   C     C_3   0.354796 0.370872 0.742415 -1.032114
C20   C     C_3   0.520551 0.366986 0.480138 0.203789
C21   C     C_3   0.564624 0.362949 0.417525 -0.276446
C22   C     C_3   0.642226 0.319932 0.468753 -1.057249
C23   C     C_3   0.945844 0.875661 0.618488 0.200124
C24   C     C_R   0.431179 0.002420 0.630119 0.011388
C25   C     C_3   0.916798 0.879175 0.696754 -0.269424
C26   C     C_3   0.826352 0.847759 0.651694 -1.074384
C27   C     C_3   0.049336 0.878166 0.463554 0.192031
C28   C     C_3   0.100072 0.885910 0.409301 -0.260469
C29   C     C_3   0.191713 0.853577 0.470065 -1.062370
C30   C     C_3   0.535294 0.620368 0.457539 0.266668
C31   C     C_3   0.512783 0.678158 0.474998 -0.271027
C32   C     C_3   0.451133 0.709076 0.366300 -0.926732
C33   C     C_3   0.536560 0.588889 0.759923 0.191589
C34   C     C_3   0.590481 0.636900 0.837101 -0.290926
C35   C     C_R   0.676000 0.501072 0.717850 0.160471
C36   C     C_3   0.598409 0.632403 0.944119 -1.008900
C37   C     C_3   0.022668 0.135736 0.475909 0.226567
C38   C     C_3   0.964436 0.182101 0.476450 -0.272938
C39   C     C_3   0.010442 0.237848 0.497557 -1.045593
C40   C     C_3   0.031493 0.074459 0.765664 0.204933
C41   C     C_3   0.977724 0.112254 0.791802 -0.288247
C42   C     C_3   0.001686 0.100573 0.905961 -1.015122
C43   C     C_3   0.212997 0.651094 0.606513 0.199994
C44   C     C_3   0.254521 0.708491 0.629410 -0.275808
C45   C     C_3   0.346201 0.712875 0.744924 -1.036348
C46   C     C_R   0.309738 0.500217 0.357921 0.151761
C47   C     C_3   0.881469 0.641843 0.440805 0.208568
C48   C     C_3   0.918015 0.700280 0.483355 -0.365860
C49   C     C_3   0.846249 0.742913 0.403815 -1.023505
C50   C     C_3   0.622150 0.029315 0.558797 0.229829
C51   C     C_3   0.726354 0.032516 0.654276 -0.272971
C52   C     C_3   0.759716 0.980745 0.724194 -1.049374
C53   C     C_3   0.338979 0.163166 0.417857 0.194387
C54   C     C_3   0.318597 0.224451 0.400597 -0.267893
C55   C     C_3   0.219688 0.236179 0.297912 -1.016380
C56   C     C_3   0.069081 0.705447 0.198092 0.142268
C57   C     C_R   0.176793 0.000539 0.725906 0.144511
C58   C     C_3   0.161777 0.706138 0.313044 -0.219999
C59   C     C_3   0.230349 0.746778 0.319423 -1.081307
C60   C     C_3   0.945847 0.688382 0.772354 0.124432
C61   C     C_3   0.868364 0.650931 0.682427 -0.276782
C62   C     C_3   0.775462 0.680183 0.602565 -1.093664
C63   C     C_3   0.567686 0.191367 0.249025 0.100453
C64   C     C_3   0.638811 0.150879 0.335909 -0.268049
C65   C     C_3   0.733362 0.177271 0.420372 -1.033328
C66   C     C_3   0.433969 0.202032 0.774145 0.182658
C67   C     C_3   0.340129 0.182072 0.672266 -0.287122
C68   C     C_R   0.819173 0.000611 0.343257 0.188934
C69   C     C_3   0.262465 0.224360 0.630379 -1.094235
C70   C     C_3   0.502968 0.458543 0.612821 0.484035
C71   C     C_3   0.473277 0.453909 0.494139 0.501417
C72   C     C_3   0.005910 0.954756 0.596462 0.474976
C73   C     C_R   0.180279 0.635944 0.097383 -0.253495
C74   C     C_3   0.986342 0.957313 0.482304 0.496998
C75   C     C_3   0.430359 0.504875 0.580558 -0.578409
C76   C     C_3   0.545746 0.496353 0.514137 -0.537125
C77   C     C_3   0.928428 0.997794 0.562836 -0.554122
C78   C     C_3   0.058238 0.003156 0.518448 -0.504141
C79   C     C_3   0.401846 0.500093 0.461093 -0.121665
C80   C     C_3   0.576383 0.501049 0.634639 -0.171806
C81   C     C_3   0.910390 0.000332 0.448305 -0.122071
C82   C     C_3   0.078489 0.000546 0.634868 -0.178037
C83   C     C_3   0.475522 0.542458 0.484607 0.546891
C84   C     C_R   0.346046 0.150078 0.904710 -0.295410
C85   C     C_3   0.505540 0.546920 0.603280 0.485679
C86   C     C_3   0.982594 0.046055 0.486919 0.539260
C87   C     C_3   0.002410 0.043454 0.601352 0.468170
C88   C     C_R   0.761366 0.312284 0.099965 0.156354
C89   C     C_R   0.195498 0.287588 0.889719 0.142435
C90   C     C_R   0.370401 0.736940 0.076268 0.126644
C91   C     C_R   0.747530 0.816253 0.905540 0.167101
C92   C     C_R   0.747871 0.330675 0.003003 0.050268
C93   C     C_R   0.234305 0.319879 0.983939 0.047844
C94   C     C_R   0.325769 0.779311 0.001018 0.045788
C95   C     C_R   0.655941 0.150246 0.092111 -0.254304
C96   C     C_R   0.757270 0.833082 0.001350 0.048720
C97   C     C_R   0.670446 0.310932 0.902085 -0.217830
C98   C     C_R   0.331084 0.318044 0.066958 -0.214697
C99   C     C_R   0.229998 0.790072 0.948006 -0.216268
C100  C     C_R   0.830688 0.810060 0.102065 -0.227380
C101  C     C_R   0.906452 0.375983 0.095120 -0.150731
C102  C     C_R   0.085466 0.367636 0.904803 -0.138005
C103  C     C_R   0.443241 0.850074 0.092678 -0.135507
C104  C     C_R   0.595755 0.877197 0.906198 -0.144495
C105  C     C_R   0.176532 0.752743 0.956457 -0.156607
C106  C     C_R   0.821209 0.358013 0.003781 0.081569
C107  C     C_R   0.868372 0.760643 0.101671 -0.237070
C108  C     C_R   0.632305 0.261543 0.900543 -0.236887
C109  C     C_R   0.383806 0.276180 0.064906 -0.158456
C110  C     C_R   0.219636 0.704965 0.015655 0.072951
C111  C     C_R   0.845876 0.737966 0.002330 0.055002
C112  C     C_R   0.656952 0.236941 0.999221 0.068753
C113  C     C_R   0.337751 0.236275 0.981975 0.069906
C114  C     C_R   0.316739 0.699132 0.082092 0.136151
C115  C     C_R   0.793980 0.770348 0.906817 0.172241
C116  C     C_R   0.714073 0.266645 0.097466 0.151664
C117  C     C_R   0.172159 0.352001 0.994575 0.071277
C118  C     C_R   0.246557 0.245848 0.889538 0.127602
C119  C     C_3   0.375762 0.652509 0.091298 -0.462231
C120  C     C_3   0.716510 0.757227 0.789369 -0.543019
C121  C     C_3   0.796486 0.248681 0.208793 -0.511117
C122  C     C_3   0.164352 0.207832 0.832151 -0.465371
C123  C     C_3   0.848475 0.297854 0.210672 -0.511655
C124  C     C_3   0.107268 0.254228 0.830326 -0.529837
C125  C     C_3   0.435664 0.694518 0.085000 -0.509263
C126  C     C_3   0.664413 0.806228 0.789417 -0.519527
C127  C     C_R   0.087544 0.552042 0.609695 -0.064989
C128  C     C_R   0.379659 0.820617 0.000291 0.078664
C129  C     C_R   0.112913 0.552408 0.538067 -0.106511
C130  C     C_R   0.404121 0.054607 0.471983 -0.120368
C131  C     C_R   0.424567 0.051178 0.396164 -0.118415
C132  C     C_R   0.072321 0.502661 0.644336 0.123030
C133  C     C_R   0.111522 0.503356 0.488772 0.074992
C134  C     C_R   0.395571 0.005634 0.514178 0.069612
C135  C     C_R   0.418315 0.002561 0.344104 0.091707
C136  C     C_R   0.101288 0.454172 0.621991 -0.195889
C137  C     C_R   0.120548 0.454439 0.543583 -0.161910
C138  C     C_R   0.373781 0.957599 0.451272 -0.160220
C139  C     C_R   0.683736 0.862214 0.998633 0.075835
C140  C     C_R   0.383922 0.956315 0.364901 -0.194058
C141  C     C_3   0.063962 0.606449 0.490635 0.266264
C142  C     C_3   0.035045 0.605512 0.568715 0.274187
C143  C     C_3   0.497823 0.095379 0.449708 0.262775
C144  C     C_3   0.470852 0.102852 0.528374 0.293950
C145  C     C_R   0.057388 0.546411 0.306815 -0.139169
C146  C     C_R   0.009761 0.545983 0.740869 -0.129067
C147  C     C_R   0.481079 0.045561 0.248366 -0.108447
C148  C     C_R   0.448107 0.046711 0.695407 -0.125502
C149  C     C_R   0.730424 0.455633 0.740418 -0.097329
C150  C     C_R   0.074942 0.501833 0.372264 0.040184
C151  C     C_R   0.259391 0.454782 0.299911 -0.115152
C152  C     C_R   0.232397 0.954926 0.752058 -0.108787
C153  C     C_R   0.764462 0.955112 0.293734 -0.129875
C154  C     C_R   0.054685 0.456006 0.307745 -0.134159
C155  C     C_R   0.997964 0.455722 0.727603 -0.136394
C156  C     C_R   0.487458 0.954468 0.255858 -0.146994
C157  C     C_R   0.447538 0.956256 0.692695 -0.132876
C158  C     C_R   0.731107 0.546780 0.747446 -0.159493
C159  C     C_R   0.260275 0.546050 0.300755 -0.087795
C160  C     C_R   0.231410 0.046286 0.751036 -0.159255
H1    H     H_    0.803639 0.664458 0.824145 0.151690
H2    H     H_    0.738809 0.763202 0.734408 0.203775
H3    H     H_    0.848564 0.823891 0.180801 0.149770
H4    H     H_    0.337509 0.624873 0.018485 0.195730
H5    H     H_    0.679689 0.718382 0.778358 0.200936
H6    H     H_    0.827920 0.209695 0.206713 0.214693
H7    H     H_    0.172804 0.173455 0.885832 0.205943
H8    H     H_    0.908463 0.286056 0.208506 0.199692
H9    H     H_    0.081060 0.246314 0.881117 0.206504
H10   H     H_    0.432956 0.691213 0.008998 0.202406
H11   H     H_    0.600425 0.793663 0.782407 0.198353
H12   H     H_    0.931938 0.375329 0.180498 0.111523
H13   H     H_    0.781626 0.251323 0.271199 0.186096
H14   H     H_    0.051917 0.356144 0.820301 0.098868
H15   H     H_    0.482910 0.836779 0.177837 0.092959
H16   H     H_    0.569729 0.875467 0.820767 0.107732
H17   H     H_    0.258049 0.622530 0.598661 0.109084
H18   H     H_    0.213299 0.638447 0.678107 0.092273
H19   H     H_    0.268183 0.718855 0.567728 0.198603
H20   H     H_    0.203535 0.738530 0.621828 0.205173
H21   H     H_    0.333213 0.705920 0.808301 0.270253
H22   H     H_    0.376285 0.754297 0.757084 0.272492
H23   H     H_    0.397484 0.682338 0.755422 0.273294
H24   H     H_    0.142867 0.195629 0.748828 0.201959
H25   H     H_    0.811014 0.638441 0.423518 0.140490
H26   H     H_    0.869423 0.635617 0.359821 0.102895
H27   H     H_    0.933240 0.706186 0.565927 0.222065
H28   H     H_    0.983639 0.707563 0.490545 0.226301
H29   H     H_    0.831118 0.738287 0.320815 0.273828
H30   H     H_    0.874605 0.784458 0.434940 0.262852
H31   H     H_    0.779948 0.738568 0.396442 0.269234
H32   H     H_    0.612591 0.996758 0.501363 0.118092
H33   H     H_    0.583254 0.017661 0.593190 0.089111
H34   H     H_    0.767735 0.038495 0.620606 0.196287
H35   H     H_    0.864915 0.327935 0.275463 0.197438
H36   H     H_    0.738727 0.067995 0.707658 0.215435
H37   H     H_    0.723556 0.976062 0.764630 0.277737
H38   H     H_    0.836558 0.983075 0.789193 0.275090
H39   H     H_    0.744599 0.944595 0.671557 0.278306
H40   H     H_    0.285867 0.142686 0.424043 0.107875
H41   H     H_    0.332409 0.147194 0.344026 0.096441
H42   H     H_    0.326393 0.242371 0.473845 0.202970
H43   H     H_    0.370294 0.244473 0.391381 0.200813
H44   H     H_    0.210881 0.219712 0.223061 0.274675
H45   H     H_    0.207691 0.280956 0.287836 0.264687
H46   H     H_    0.053558 0.269505 0.745348 0.198405
H47   H     H_    0.166654 0.217473 0.306235 0.267527
H48   H     H_    0.084125 0.587079 0.335104 0.166450
H49   H     H_    0.026274 0.586695 0.734876 0.170083
H50   H     H_    0.462849 0.086618 0.251460 0.158776
H51   H     H_    0.426121 0.087827 0.666903 0.161711
H52   H     H_    0.708787 0.588864 0.731982 0.136372
H53   H     H_    0.275423 0.587596 0.330354 0.124074
H54   H     H_    0.207735 0.088055 0.732623 0.115751
H55   H     H_    0.784593 0.088448 0.316625 0.144926
H56   H     H_    0.040651 0.747537 0.178414 0.123521
H57   H     H_    0.507459 0.698211 0.163122 0.191577
H58   H     H_    0.082391 0.694206 0.136628 0.099769
H59   H     H_    0.147831 0.717880 0.373907 0.227720
H60   H     H_    0.193494 0.664739 0.334294 0.189430
H61   H     H_    0.244804 0.736165 0.258553 0.274914
H62   H     H_    0.297258 0.746138 0.403758 0.283256
H63   H     H_    0.200532 0.788616 0.301275 0.280170
H64   H     H_    0.938897 0.729028 0.735618 0.142894
H65   H     H_    0.937692 0.695996 0.839612 0.086504
H66   H     H_    0.890281 0.633646 0.632846 0.251809
H67   H     H_    0.856592 0.616719 0.720819 0.197912
H68   H     H_    0.654244 0.838954 0.731820 0.198821
H69   H     H_    0.744199 0.692597 0.645308 0.264690
H70   H     H_    0.726153 0.651967 0.534587 0.264603
H71   H     H_    0.785037 0.716265 0.565541 0.282538
H72   H     H_    0.569925 0.228634 0.292791 0.157297
H73   H     H_    0.587297 0.204425 0.193704 0.074464
H74   H     H_    0.611881 0.134208 0.380711 0.261616
H75   H     H_    0.647567 0.116881 0.294269 0.187603
H76   H     H_    0.759040 0.198609 0.377954 0.251516
H77   H     H_    0.785008 0.145415 0.475604 0.282377
H78   H     H_    0.726814 0.207099 0.471463 0.284360
H79   H     H_    0.099295 0.415390 0.655083 0.121894
H80   H     H_    0.447059 0.242351 0.752243 0.120282
H81   H     H_    0.429550 0.209346 0.844337 0.081307
H82   H     H_    0.347952 0.174157 0.605545 0.242429
H83   H     H_    0.319865 0.142878 0.689728 0.178619
H84   H     H_    0.253428 0.235214 0.695677 0.277049
H85   H     H_    0.195884 0.207381 0.558130 0.278401
H86   H     H_    0.279071 0.261841 0.603378 0.279356
H87   H     H_    0.128812 0.415606 0.515842 0.113603
H88   H     H_    0.360211 0.919681 0.476357 0.120277
H89   H     H_    0.233673 0.644490 0.183471 0.148854
H90   H     H_    0.375013 0.917999 0.323745 0.123658
H91   H     H_    0.002855 0.603136 0.403187 0.105967
H92   H     H_    0.066729 0.637331 0.634132 0.079180
H93   H     H_    0.479419 0.131263 0.395222 0.105787
H94   H     H_    0.530593 0.095565 0.615823 0.110335
H95   H     H_    0.705486 0.415230 0.709770 0.099239
H96   H     H_    0.272600 0.413073 0.328879 0.130642
H97   H     H_    0.210174 0.912926 0.735741 0.122373
H98   H     H_    0.780422 0.914054 0.326387 0.112731
H99   H     H_    0.073304 0.414363 0.336433 0.086521
H100  H     H_    0.300502 0.161476 0.819319 0.155434
H101  H     H_    0.991926 0.414994 0.697439 0.088281
H102  H     H_    0.481017 0.912328 0.271265 0.098164
H103  H     H_    0.428581 0.914844 0.662658 0.093608
H104  H     H_    0.769601 0.353821 0.828572 0.087937
H105  H     H_    0.242311 0.362895 0.174551 0.118970
H106  H     H_    0.305463 0.837330 0.823220 0.105914
H107  H     H_    0.742505 0.867929 0.176507 0.106856
H108  H     H_    0.379790 0.508697 0.601772 0.170500
H109  H     H_    0.593980 0.493757 0.489234 0.174031
H110  H     H_    0.872796 0.995812 0.576253 0.177145
H111  H     H_    0.697439 0.163361 0.176978 0.142417
H112  H     H_    0.112571 0.006592 0.503050 0.174882
H113  H     H_    0.460460 0.343732 0.669367 0.113488
H114  H     H_    0.382181 0.396718 0.581233 0.092234
H115  H     H_    0.500070 0.395641 0.837364 0.214227
H116  H     H_    0.417417 0.447761 0.748483 0.189324
H117  H     H_    0.288975 0.375432 0.657860 0.267943
H118  H     H_    0.342189 0.385786 0.802865 0.278076
H119  H     H_    0.374403 0.327103 0.759354 0.267508
H120  H     H_    0.488955 0.326939 0.475420 0.115835
H121  H     H_    0.575986 0.374487 0.569044 0.107016
H122  H     H_    0.101953 0.759850 0.912879 0.138808
H123  H     H_    0.509664 0.351942 0.330024 0.200071
H124  H     H_    0.594665 0.403037 0.419132 0.200290
H125  H     H_    0.699681 0.331194 0.555181 0.270572
H126  H     H_    0.671502 0.317077 0.420252 0.272306
H127  H     H_    0.613813 0.279427 0.468312 0.275712
H128  H     H_    0.963950 0.832588 0.615389 0.116935
H129  H     H_    0.885531 0.886754 0.532650 0.097955
H130  H     H_    0.973781 0.862038 0.778560 0.197705
H131  H     H_    0.906267 0.922543 0.708564 0.205886
H132  H     H_    0.767274 0.866123 0.572747 0.272872
H133  H     H_    0.907535 0.738738 0.178884 0.192280
H134  H     H_    0.809384 0.849161 0.712447 0.280178
H135  H     H_    0.834815 0.804590 0.637204 0.270983
H136  H     H_    0.024516 0.835297 0.450518 0.118547
H137  H     H_    0.099626 0.883630 0.554500 0.110147
H138  H     H_    0.053789 0.872163 0.321848 0.204448
H139  H     H_    0.116194 0.929712 0.410043 0.204802
H140  H     H_    0.239655 0.867406 0.557266 0.266946
H141  H     H_    0.227023 0.860126 0.429217 0.274400
H142  H     H_    0.177408 0.809380 0.468393 0.275810
H143  H     H_    0.554366 0.621524 0.398646 0.099121
H144  H     H_    0.595010 0.240543 0.822909 0.190635
H145  H     H_    0.599211 0.605712 0.537340 0.052435
H146  H     H_    0.476742 0.676229 0.515954 0.235761
H147  H     H_    0.578951 0.701280 0.529929 0.164032
H148  H     H_    0.488460 0.714145 0.327403 0.250654
H149  H     H_    0.434453 0.750159 0.381842 0.252733
H150  H     H_    0.384781 0.686572 0.309247 0.281006
H151  H     H_    0.575782 0.550716 0.803383 0.114115
H152  H     H_    0.465442 0.587039 0.741484 0.106481
H153  H     H_    0.662228 0.637655 0.857730 0.210048
H154  H     H_    0.554545 0.675755 0.794834 0.206482
H155  H     H_    0.457117 0.272957 0.131856 0.130363
H156  H     H_    0.527593 0.631803 0.926321 0.264770
H157  H     H_    0.637608 0.668074 0.997597 0.277591
H158  H     H_    0.636895 0.594612 0.989312 0.269438
H159  H     H_    0.051324 0.149200 0.430238 0.120409
H160  H     H_    0.084230 0.126265 0.561617 0.087372
H161  H     H_    0.895538 0.183170 0.394820 0.209328
H162  H     H_    0.951855 0.174188 0.539831 0.234339
H163  H     H_    0.023614 0.246765 0.434893 0.278681
H164  H     H_    0.077393 0.239505 0.581241 0.276493
H165  H     H_    0.962960 0.269826 0.491905 0.274398
H166  H     H_    0.412864 0.631860 0.172937 0.211875
H167  H     H_    0.108162 0.078978 0.830171 0.114539
H168  H     H_    0.011994 0.031562 0.768733 0.105676
H169  H     H_    0.994910 0.155372 0.788266 0.220726
H170  H     H_    0.901095 0.106610 0.728563 0.201861
H171  H     H_    0.983087 0.057885 0.910467 0.270553
H172  H     H_    0.961241 0.128596 0.922006 0.276910
H173  H     H_    0.077815 0.107080 0.970643 0.267682
H174  H     H_    0.650990 0.326751 0.823799 0.159764
H175  H     H_    0.363759 0.345713 0.136583 0.136581
H176  H     H_    0.196727 0.826694 0.899353 0.154659
N1    N     N_R   0.892620 0.603790 0.941770 -0.064061
N2    N     N_R   0.973690 0.529110 0.793240 -0.054943
N3    N     N_R   0.526310 0.029110 0.206760 -0.051878
N4    N     N_R   0.473690 0.029110 0.793240 -0.036794
N5    N     N_R   0.818570 0.472310 0.793020 -0.050507
N6    N     N_R   0.181430 0.472310 0.206980 -0.053575
N7    N     N_R   0.318570 0.972310 0.793020 -0.051265
N8    N     N_R   0.681430 0.972310 0.206980 -0.050915
N9    N     N_R   0.026930 0.472300 0.207330 -0.040999
N10   N     N_R   0.973070 0.472300 0.792670 -0.039074
N11   N     N_R   0.526930 0.972300 0.207330 -0.039929
N12   N     N_R   0.107380 0.603790 0.058230 -0.068771
N13   N     N_R   0.473070 0.972300 0.792670 -0.039793
N14   N     N_R   0.817960 0.529130 0.792460 -0.051300
N15   N     N_R   0.182040 0.529130 0.207540 -0.048371
N16   N     N_R   0.317960 0.029130 0.792460 -0.043551
N17   N     N_R   0.682040 0.029130 0.207540 -0.056851
N18   N     N_R   0.894850 0.397640 0.943830 -0.043405
N19   N     N_R   0.105150 0.397640 0.056170 -0.042301
N20   N     N_R   0.394850 0.897640 0.943830 -0.039432
N21   N     N_R   0.605150 0.897640 0.056170 -0.041744
N22   N     N_R   0.950040 0.603780 0.055950 -0.082986
N23   N     N_R   0.392620 0.103790 0.941770 -0.061622
N24   N     N_R   0.049960 0.603780 0.944050 -0.101664
N25   N     N_R   0.450040 0.103780 0.055950 -0.094808
N26   N     N_R   0.549960 0.103780 0.944050 -0.085517
N27   N     N_R   0.607380 0.103790 0.058230 -0.069097
N28   N     N_R   0.952270 0.397640 0.058010 -0.041193
N29   N     N_R   0.047730 0.397640 0.941990 -0.039365
N30   N     N_R   0.452270 0.897640 0.058010 -0.037622
N31   N     N_R   0.547730 0.897640 0.941990 -0.039881
N32   N     N_R   0.026310 0.529110 0.206760 -0.039640
Ni1   Ni    Ni4+2 0.934160 0.565860 0.869070 0.198427
Ni2   Ni    Ni4+2 0.065840 0.565860 0.130930 0.219874
Ni3   Ni    Ni4+2 0.434160 0.065860 0.869070 0.213489
Ni4   Ni    Ni4+2 0.565840 0.065860 0.130930 0.203213
Ni5   Ni    Ni4+2 0.067260 0.435560 0.132230 0.205549
Ni6   Ni    Ni4+2 0.932740 0.435560 0.867770 0.212247
Ni7   Ni    Ni4+2 0.567260 0.935560 0.132230 0.209493
Ni8   Ni    Ni4+2 0.432740 0.935560 0.867770 0.205059
O1    O     O_3   0.528203 0.415060 0.687325 -0.685149
O2    O     O_3   0.937236 0.598540 0.514918 -0.668891
O3    O     O_3   0.593799 0.080098 0.502476 -0.672744
O4    O     O_3   0.429891 0.155050 0.517485 -0.659030
O5    O     O_3   0.006345 0.669302 0.198069 -0.691796
O6    O     O_3   0.035488 0.668206 0.810202 -0.702859
O7    O     O_3   0.476213 0.169674 0.192989 -0.696151
O8    O     O_3   0.506050 0.165285 0.797694 -0.687898
O9    O     O_3   0.447620 0.406146 0.429378 -0.683241
O10   O     O_3   0.027198 0.907433 0.660972 -0.684017
O11   O     O_3   0.969762 0.912703 0.413010 -0.675671
O12   O     O_3   0.455620 0.586492 0.412847 -0.654746
O13   O     O_3   0.527683 0.596812 0.660627 -0.686790
O14   O     O_3   0.962856 0.091046 0.417445 -0.674685
O15   O     O_3   0.011438 0.089834 0.662691 -0.688523
O16   O     O_3   0.121245 0.651912 0.506243 -0.678759

loop_
_geom_bond_atom_site_label_1
_geom_bond_atom_site_label_2
_ccdc_geom_bond_type
C105  C110  A    
C133  C137  A    
C3    N17   A    
C38   H161  S    
C96   C139  S    
C56   H58   S    
C39   H165  S    
C158  N14   A    
C5    H105  S    
C121  H6    S    
C16   C112  S    
C61   H67   S    
C95   N27   A    
C25   H131  S    
C68   C81   S    
C26   H132  S    
C48   H28   S    
C46   C79   S    
N15   Ni2   S    
C3    H55   S    
C36   H157  S    
C57   C152  A    
C35   C80   S    
C22   H126  S    
C91   C96   A    
C121  H13   S    
C73   N12   A    
C31   H147  S    
N16   Ni3   S    
C28   H139  S    
C18   H116  S    
C81   C86   S    
C98   C109  A    
C21   C22   S    
C130  C134  A    
C11   N26   A    
C9    N24   A    
C30   O12   S    
C44   H19   S    
C45   H22   S    
N1    N22   A    
C141  O16   S    
C98   H175  S    
C116  C121  S    
C41   H169  S    
C51   C52   S    
C8    O5    S    
C64   H75   S    
C7    N21   A    
C37   O14   S    
C53   H41   S    
C85   O13   S    
N23   Ni3   S    
C43   C44   S    
C37   C38   S    
C97   H174  S    
C27   O11   S    
C39   H164  S    
C78   C82   S    
C99   H176  S    
N7    N16   A    
C47   H26   S    
C138  C140  A    
C155  N10   A    
C147  N3    A    
C108  H144  S    
C92   C106  S    
C157  H103  S    
C141  H91   S    
C52   H38   S    
C20   H121  S    
C74   C81   S    
C131  C143  S    
C24   C134  S    
C122  H7    S    
C66   H80   S    
N3    Ni4   S    
C153  N8    A    
C5    N19   A    
C34   H153  S    
C17   H113  S    
C69   H84   S    
C15   C84   A    
N21   N31   A    
C40   H168  S    
C130  C131  A    
C21   H123  S    
N7    Ni8   S    
C66   C67   S    
C71   C76   S    
C4    C106  A    
C32   H150  S    
C100  H3    S    
C148  N4    A    
N5    Ni6   S    
C121  C123  S    
C66   H81   S    
C155  H101  S    
C87   O15   S    
C19   H118  S    
C20   C21   S    
C75   C79   S    
C82   C87   S    
C43   H18   S    
C71   O9    S    
C27   H137  S    
N25   Ni4   S    
C71   C79   S    
C144  O4    S    
C104  H16   S    
C56   O5    S    
C146  N2    A    
C156  N11   A    
C38   C39   S    
C152  N7    A    
C132  C136  A    
N26   N27   A    
C55   H44   S    
C10   O7    S    
C37   H160  S    
N18   N28   A    
C101  H12   S    
C118  C122  S    
C58   H60   S    
C152  H97   S    
C50   O3    S    
C62   H70   S    
C6    H106  S    
C15   C113  S    
N20   Ni8   S    
C147  H50   S    
C130  C144  S    
C110  C114  A    
C145  C150  A    
C8    C12   A    
C29   H142  S    
C23   H128  S    
C90   C114  A    
C11   O8    S    
C83   O12   S    
C13   C135  S    
C70   O1    S    
C1    C12   A    
C93   C117  S    
C28   H138  S    
C67   H82   S    
C92   C97   A    
C73   H89   S    
N21   Ni7   S    
C33   O13   S    
C140  H90   S    
C68   C153  A    
C84   N23   A    
C24   C157  A    
C10   N25   A    
C49   H30   S    
C25   C26   S    
C8    N22   A    
N31   Ni8   S    
C33   H151  S    
C127  C129  A    
C13   C156  A    
C64   H74   S    
C103  C128  A    
C59   H62   S    
C4    N18   A    
N5    N14   A    
C31   C32   S    
C4    H104  S    
C160  H54   S    
C17   C18   S    
N8    Ni7   S    
C7    H107  S    
C42   H171  S    
C102  C117  A    
C123  H8    S    
N4    Ni3   S    
C149  N5    A    
C65   H78   S    
C20   H120  S    
C13   C147  A    
C122  C124  S    
N20   N30   A    
C112  C116  A    
C146  H49   S    
C101  C106  A    
C14   C110  S    
C54   C55   S    
C107  C111  A    
C86   O14   S    
C133  C150  S    
C76   C80   S    
C136  C137  A    
C23   H129  S    
C119  H4    S    
C89   C124  S    
C149  H95   S    
C119  H166  S    
N3    N11   A    
C61   H66   S    
N26   Ni3   S    
C6    C128  A    
C36   H158  S    
C96   C100  A    
C56   C58   S    
C156  H102  S    
C34   C36   S    
C89   C93   A    
C61   C62   S    
C56   H56   S    
C22   H127  S    
C63   C64   S    
C30   H143  S    
C77   C87   S    
C143  H93   S    
C70   C75   S    
C57   C82   S    
C26   H134  S    
C47   O2    S    
N12   Ni2   S    
C151  H96   S    
C19   H119  S    
C159  H53   S    
C41   C42   S    
C3    C68   A    
C44   H20   S    
N32   Ni2   S    
C45   H21   S    
C157  N13   A    
C28   C29   S    
C30   C31   S    
C137  H87   S    
C120  C126  S    
C129  C141  S    
C76   C83   S    
C18   C19   S    
C65   H76   S    
C39   H163  S    
C75   C85   S    
C124  H9    S    
C100  C107  A    
N29   Ni6   S    
C104  N31   A    
C2    C132  S    
C72   O10   S    
C70   C71   S    
C142  O2    S    
N13   Ni8   S    
C78   H112  S    
C47   H25   S    
C50   H32   S    
C124  H46   S    
C1    H1    S    
C123  H35   S    
C153  H98   S    
C120  H5    S    
C90   C94   A    
C75   H108  S    
C158  H52   S    
C135  C140  A    
C55   H45   S    
C142  H92   S    
C70   C80   S    
C38   H162  S    
C48   H27   S    
C72   C74   S    
C148  H51   S    
C34   H154  S    
C67   H83   S    
C86   C87   S    
C102  N29   A    
C58   C59   S    
C53   C54   S    
C63   O7    S    
C108  C112  A    
C60   C61   S    
C151  N6    A    
C9    C14   A    
C80   C85   S    
N22   Ni2   S    
C40   H167  S    
N19   Ni5   S    
C11   C16   A    
C77   C81   S    
C103  H15   S    
C105  H122  S    
C125  H10   S    
C59   H63   S    
C103  N30   A    
C119  C125  S    
C48   C49   S    
C83   C85   S    
C57   C160  A    
N9    Ni5   S    
N11   Ni7   S    
C102  H14   S    
C55   H47   S    
C44   C45   S    
C45   H23   S    
C43   H17   S    
C41   H170  S    
N28   Ni5   S    
C21   H124  S    
N2    Ni1   S    
C50   H33   S    
C107  H133  S    
C95   H111  S    
N18   Ni6   S    
C94   C128  S    
C25   H130  S    
C104  C139  A    
C51   H36   S    
C64   C65   S    
C143  C144  S    
C35   C158  A    
C79   C83   S    
C114  C119  S    
C101  N28   A    
C46   C159  A    
C37   H159  S    
C90   C125  S    
C91   C115  A    
N6    Ni5   S    
N4    N13   A    
C40   O15   S    
N27   Ni4   S    
N6    N15   A    
N12   N24   A    
N24   Ni1   S    
C69   H86   S    
C62   H71   S    
C74   C78   S    
C136  H79   S    
C52   H37   S    
C35   C149  A    
C17   O1    S    
C9    O6    S    
C154  H99   S    
C54   H43   S    
C23   O10   S    
C29   H141  S    
C125  H57   S    
C2    C155  A    
C91   C126  S    
C27   H136  S    
C17   H114  S    
N9    N32   A    
C159  N15   A    
N10   Ni6   S    
C22   H125  S    
C30   H145  S    
C131  C135  A    
C10   C15   A    
C29   H140  S    
C49   H29   S    
C31   H146  S    
N19   N29   A    
C32   H149  S    
C60   H65   S    
C127  C132  A    
C126  H11   S    
C59   H61   S    
C97   C108  A    
C141  C142  S    
C88   C92   A    
C53   O4    S    
C20   O9    S    
C42   H172  S    
C144  H94   S    
C78   C86   S    
C122  H24   S    
C76   H109  S    
C154  N9    A    
C65   H77   S    
C143  O3    S    
C88   C123  S    
C60   H64   S    
N14   Ni1   S    
C66   O8    S    
C50   C51   S    
C43   O16   S    
C99   C105  A    
C14   C73   A    
C32   H148  S    
C42   H173  S    
C24   C148  A    
C36   H156  S    
C54   H42   S    
C5    C117  A    
C67   C69   S    
C127  C142  S    
C88   C116  A    
C72   C77   S    
C63   H73   S    
C58   H59   S    
C47   C48   S    
C62   H69   S    
C33   C34   S    
N23   N25   A    
C52   H39   S    
N17   Ni4   S    
C109  C113  A    
C40   C41   S    
C129  C133  A    
C26   H135  S    
C1    N1    A    
C12   C111  S    
C18   H115  S    
C69   H85   S    
C16   C95   A    
C19   H117  S    
C53   H40   S    
C84   H100  S    
C126  H68   S    
N8    N17   A    
C51   H34   S    
N30   Ni7   S    
C134  C138  A    
C49   H31   S    
C120  H2    S    
C2    C146  A    
N2    N10   A    
C33   H152  S    
C74   O11   S    
C7    C139  A    
C94   C99   A    
C60   O6    S    
C160  N16   A    
C46   C151  A    
C23   C25   S    
C72   C82   S    
C138  H88   S    
C113  C118  A    
C145  N32   A    
C89   C118  A    
C115  C120  S    
C150  C154  A    
N1    Ni1   S    
C27   C28   S    
C77   H110  S    
C111  C115  A    
C93   C98   A    
C145  H48   S    
C109  H155  S    
C63   H72   S    
C6    N20   A    
