data_mof_unit_4406.cif
_audit_creation_date              2012-12-10T17:26:08-0500
_audit_creation_method            fapswitch 2.2
_symmetry_space_group_name_H-M    P1
_symmetry_Int_Tables_number       1
_space_group_crystal_system       triclinic
_cell_length_a                    25.843614
_cell_length_b                    26.068212
_cell_length_c                    22.095135
_cell_angle_alpha                 90.010104
_cell_angle_beta                  125.410185
_cell_angle_gamma                 90.02537
_cell_volume                      12131.9852657

loop_
_atom_site_label
_atom_site_type_symbol
_atom_type_description
_atom_site_fract_x
_atom_site_fract_y
_atom_site_fract_z
_atom_type_partial_charge
C1    C     C_R   0.900400 0.750086 0.300680 0.842519
C2    C     C_R   0.099612 0.249923 0.699353 0.833965
C3    C     C_R   0.099585 0.750118 0.699302 0.841840
C4    C     C_R   0.900401 0.249923 0.300645 0.828383
C5    C     C_R   0.400400 0.250086 0.300680 0.842519
C6    C     C_R   0.599612 0.749923 0.699353 0.833961
C7    C     C_R   0.599585 0.250118 0.699302 0.841838
C8    C     C_R   0.400401 0.749923 0.300645 0.828387
C9    C     C_3   0.194535 0.771718 0.975590 0.448031
C10   C     C_3   0.804832 0.228505 0.024057 0.450250
C11   C     C_3   0.807114 0.767695 0.024487 0.445717
C12   C     C_3   0.193286 0.231981 0.975717 0.450180
C13   C     C_3   0.694581 0.271806 0.975590 0.448026
C14   C     C_3   0.304876 0.728591 0.024058 0.450267
C15   C     C_3   0.307141 0.267628 0.024487 0.445725
C16   C     C_3   0.693313 0.731913 0.975717 0.450170
C17   C     C_1   0.139104 0.750405 0.778433 -0.132997
C18   C     C_1   0.860742 0.249701 0.221415 -0.114454
C19   C     C_1   0.860891 0.750205 0.221534 -0.135807
C20   C     C_1   0.139282 0.249672 0.778558 -0.116674
C21   C     C_1   0.639104 0.250406 0.778433 -0.133000
C22   C     C_1   0.360742 0.749701 0.221415 -0.114452
C23   C     C_1   0.360891 0.250205 0.221534 -0.135804
C24   C     C_1   0.639282 0.749671 0.778558 -0.116681
C25   C     C_3   0.239928 0.702469 0.975109 0.141978
C26   C     C_3   0.759572 0.297868 0.024527 0.141729
C27   C     C_3   0.755822 0.702437 0.024576 0.144071
C28   C     C_3   0.244693 0.297172 0.975649 0.142688
C29   C     C_3   0.739830 0.202465 0.975110 0.141975
C30   C     C_3   0.259472 0.797862 0.024528 0.141730
C31   C     C_3   0.255749 0.202448 0.024576 0.144072
C32   C     C_3   0.744620 0.797181 0.975649 0.142687
C33   C     C_3   0.213352 0.750602 0.925917 -0.002115
C34   C     C_3   0.786101 0.249733 0.073799 -0.004767
C35   C     C_3   0.786574 0.750145 0.074032 -0.002946
C36   C     C_3   0.213837 0.249484 0.926139 -0.004035
C37   C     C_3   0.713353 0.250602 0.925916 -0.002099
C38   C     C_3   0.286101 0.749731 0.073799 -0.004779
C39   C     C_3   0.286574 0.250146 0.074032 -0.002953
C40   C     C_3   0.713837 0.749484 0.926139 -0.004028
C41   C     C_1   0.172549 0.750549 0.845043 0.047256
C42   C     C_1   0.827107 0.249678 0.154752 0.048893
C43   C     C_1   0.827411 0.750169 0.154916 0.043119
C44   C     C_1   0.172890 0.249573 0.845207 0.047909
C45   C     C_1   0.672550 0.250549 0.845043 0.047250
C46   C     C_1   0.327107 0.749677 0.154752 0.048897
C47   C     C_1   0.327411 0.250169 0.154916 0.043121
C48   C     C_1   0.672890 0.749572 0.845207 0.047905
C49   C     C_R   0.743528 0.802082 0.381434 0.365572
C50   C     C_R   0.256393 0.198163 0.619195 0.364097
C51   C     C_R   0.256361 0.802302 0.618344 0.365310
C52   C     C_R   0.744658 0.195749 0.383015 0.365334
C53   C     C_R   0.243528 0.302082 0.381434 0.365571
C54   C     C_R   0.756393 0.698163 0.619195 0.364100
C55   C     C_R   0.756361 0.302301 0.618345 0.365312
C56   C     C_R   0.244658 0.695748 0.383016 0.365336
C57   C     C_R   0.684841 0.818255 0.318873 0.373680
C58   C     C_R   0.315015 0.177806 0.679063 0.280816
C59   C     C_R   0.314992 0.818750 0.680793 0.372963
C60   C     C_R   0.686985 0.172485 0.325473 0.279543
C61   C     C_R   0.184841 0.318255 0.318873 0.373681
C62   C     C_R   0.815015 0.677807 0.679064 0.280816
C63   C     C_R   0.814992 0.318748 0.680794 0.372959
C64   C     C_R   0.186985 0.672485 0.325474 0.279546
C65   C     C_R   0.630101 0.814453 0.318308 0.313471
C66   C     C_R   0.368278 0.179025 0.676499 0.363594
C67   C     C_R   0.369723 0.815087 0.681327 0.312646
C68   C     C_R   0.631764 0.179155 0.323295 0.364167
C69   C     C_R   0.130101 0.314453 0.318308 0.313465
C70   C     C_R   0.868278 0.679026 0.676500 0.363603
C71   C     C_R   0.869724 0.315085 0.681328 0.312651
C72   C     C_R   0.131764 0.679154 0.323295 0.364164
C73   C     C_R   0.634690 0.791762 0.378208 -0.257470
C74   C     C_R   0.363962 0.203709 0.618093 -0.243374
C75   C     C_R   0.365181 0.792287 0.621502 -0.259267
C76   C     C_R   0.635911 0.204032 0.381475 -0.250096
C77   C     C_R   0.134690 0.291762 0.378208 -0.257469
C78   C     C_R   0.863963 0.703709 0.618094 -0.243373
C79   C     C_R   0.865181 0.292286 0.621502 -0.259266
C80   C     C_R   0.135912 0.704032 0.381475 -0.250100
C81   C     C_R   0.692621 0.771643 0.439732 -0.091896
C82   C     C_R   0.307136 0.227082 0.559601 -0.089156
C83   C     C_R   0.307319 0.771894 0.560126 -0.092531
C84   C     C_R   0.693052 0.226578 0.440750 -0.088964
C85   C     C_R   0.192621 0.271643 0.439732 -0.091895
C86   C     C_R   0.807136 0.727082 0.559601 -0.089157
C87   C     C_R   0.807319 0.271893 0.560127 -0.092533
C88   C     C_R   0.193053 0.726578 0.440750 -0.088962
C89   C     C_R   0.139888 0.750249 0.499942 0.844128
C90   C     C_R   0.860188 0.249818 0.500205 0.912613
C91   C     C_R   0.860059 0.750307 0.499955 0.843566
C92   C     C_R   0.139849 0.249808 0.499854 0.909814
C93   C     C_R   0.639888 0.250249 0.499942 0.844127
C94   C     C_R   0.360188 0.749818 0.500205 0.912610
C95   C     C_R   0.360059 0.250307 0.499955 0.843566
C96   C     C_R   0.639849 0.749808 0.499854 0.909815
C97   C     C_R   0.747606 0.775361 0.440857 -0.112768
C98   C     C_R   0.252716 0.224867 0.559937 -0.044777
C99   C     C_R   0.252337 0.775485 0.559017 -0.111755
C100  C     C_R   0.747652 0.223988 0.440817 -0.042736
C101  C     C_R   0.247606 0.275361 0.440857 -0.112768
C102  C     C_R   0.752717 0.724867 0.559938 -0.044778
C103  C     C_R   0.752337 0.275484 0.559018 -0.111752
C104  C     C_R   0.247652 0.723988 0.440818 -0.042738
C105  C     C_R   0.696079 0.748459 0.500081 -0.049147
C106  C     C_R   0.304073 0.251570 0.500241 -0.036517
C107  C     C_R   0.303995 0.748355 0.500061 -0.048429
C108  C     C_R   0.695908 0.251525 0.499708 -0.036925
C109  C     C_R   0.196079 0.248459 0.500081 -0.049147
C110  C     C_R   0.804074 0.751570 0.500242 -0.036516
C111  C     C_R   0.803995 0.248355 0.500061 -0.048429
C112  C     C_R   0.195907 0.751525 0.499708 -0.036925
C113  C     C_R   0.955334 0.952908 0.364918 0.194815
C114  C     C_R   0.979399 0.044136 0.599352 0.204346
C115  C     C_R   0.047891 0.952017 0.636951 0.197303
C116  C     C_R   0.027861 0.043256 0.406770 0.201828
C117  C     C_R   0.455329 0.452907 0.364916 0.194812
C118  C     C_R   0.479409 0.544136 0.599361 0.204347
C119  C     C_R   0.547900 0.452017 0.636953 0.197296
C120  C     C_R   0.527855 0.543256 0.406763 0.201823
C121  C     C_R   0.964446 0.976697 0.314334 0.106253
C122  C     C_R   0.005603 0.021882 0.669887 0.088515
C123  C     C_R   0.042174 0.976535 0.689857 0.107760
C124  C     C_R   0.005585 0.019511 0.338005 0.095847
C125  C     C_R   0.464437 0.476697 0.314330 0.106263
C126  C     C_R   0.505621 0.521883 0.669898 0.088502
C127  C     C_R   0.542191 0.476536 0.689865 0.107760
C128  C     C_R   0.505575 0.519511 0.337998 0.095839
C129  C     C_R   0.006022 0.024601 0.448895 -0.052559
C130  C     C_R   0.016279 0.973255 0.564589 -0.053907
C131  C     C_R   0.997899 0.024628 0.554387 -0.053423
C132  C     C_R   0.986288 0.973575 0.437485 -0.055576
C133  C     C_R   0.506019 0.524601 0.448893 -0.052558
C134  C     C_R   0.516283 0.473255 0.564590 -0.053905
C135  C     C_R   0.497903 0.524628 0.554390 -0.053421
C136  C     C_R   0.486285 0.473574 0.437484 -0.055577
C137  C     C_R   0.001463 0.052911 0.501243 -0.133516
C138  C     C_R   0.000649 0.945872 0.500613 -0.115128
C139  C     C_R   0.501463 0.552911 0.501243 -0.133519
C140  C     C_R   0.500649 0.445872 0.500613 -0.115123
C141  C     C_R   0.000046 0.890039 0.500054 0.902212
C142  C     C_R   0.000430 0.109493 0.500365 0.867572
C143  C     C_R   0.500046 0.390039 0.500054 0.902215
C144  C     C_R   0.500430 0.609493 0.500365 0.867567
C145  C     C_R   0.999989 0.609935 0.500077 0.886055
C146  C     C_R   0.000021 0.390091 0.499962 0.885933
C147  C     C_R   0.499989 0.109934 0.500077 0.886054
C148  C     C_R   0.500020 0.890091 0.499962 0.885934
C149  C     C_R   0.999648 0.551621 0.385945 -0.036356
C150  C     C_R   0.960663 0.448752 0.580777 -0.028000
C151  C     C_R   0.001818 0.551296 0.615065 -0.034633
C152  C     C_R   0.039390 0.448744 0.419050 -0.028489
C153  C     C_R   0.499648 0.051621 0.385945 -0.036366
C154  C     C_R   0.460663 0.948752 0.580778 -0.028003
C155  C     C_R   0.501819 0.051296 0.615066 -0.034621
C156  C     C_R   0.539391 0.948744 0.419051 -0.028486
C157  C     C_R   0.018940 0.525568 0.345866 0.417144
C158  C     C_R   0.961100 0.474897 0.637295 0.422025
C159  C     C_R   0.983006 0.525090 0.655561 0.420211
C160  C     C_R   0.039601 0.475057 0.363093 0.422081
C161  C     C_R   0.518940 0.025568 0.345866 0.417150
C162  C     C_R   0.461101 0.974897 0.637296 0.422019
C163  C     C_R   0.483006 0.025090 0.655561 0.420204
C164  C     C_R   0.539602 0.975057 0.363093 0.422092
C165  C     C_R   0.015390 0.473362 0.456001 -0.055848
C166  C     C_R   0.996434 0.526713 0.553686 -0.055918
C167  C     C_R   0.984806 0.473334 0.543967 -0.055874
C168  C     C_R   0.004083 0.526808 0.446604 -0.054344
C169  C     C_R   0.515390 0.973362 0.456001 -0.055845
C170  C     C_R   0.496435 0.026713 0.553686 -0.055921
C171  C     C_R   0.484806 0.973334 0.543967 -0.055876
C172  C     C_R   0.504083 0.026808 0.446604 -0.054342
C173  C     C_R   0.000036 0.446302 0.499930 -0.026661
C174  C     C_R   0.000083 0.553765 0.500054 -0.026692
C175  C     C_R   0.500036 0.946302 0.499930 -0.026661
C176  C     C_R   0.500083 0.053765 0.500055 -0.026692
C177  C     C_3   0.720056 0.223048 0.024747 -0.338708
C178  C     C_3   0.279309 0.777353 0.974923 -0.335825
C179  C     C_3   0.277272 0.219229 0.975084 -0.338759
C180  C     C_3   0.723105 0.780322 0.025109 -0.335620
C181  C     C_3   0.220110 0.722962 0.024746 -0.338717
C182  C     C_3   0.779365 0.277268 0.974921 -0.335822
C183  C     C_3   0.777319 0.719288 0.975084 -0.338750
C184  C     C_3   0.223152 0.280382 0.025108 -0.335629
H1    H     H_    0.695711 0.201358 0.044723 0.183843
H2    H     H_    0.303579 0.799109 0.954903 0.185190
H3    H     H_    0.299547 0.194719 0.955024 0.183116
H4    H     H_    0.700809 0.804776 0.045196 0.184936
H5    H     H_    0.195809 0.701202 0.044721 0.183845
H6    H     H_    0.803679 0.298955 0.954900 0.185187
H7    H     H_    0.799631 0.694827 0.955024 0.183118
H8    H     H_    0.200893 0.304885 0.045195 0.184935
H9    H     H_    0.591547 0.790382 0.375450 0.173766
H10   H     H_    0.406304 0.203443 0.619054 0.170564
H11   H     H_    0.408326 0.790936 0.624265 0.173110
H12   H     H_    0.592594 0.206215 0.378305 0.173222
H13   H     H_    0.091547 0.290382 0.375450 0.173763
H14   H     H_    0.906304 0.703444 0.619055 0.170567
H15   H     H_    0.908326 0.290936 0.624265 0.173112
H16   H     H_    0.092594 0.706214 0.378306 0.173221
O1    O     O_3   0.000000 0.750000 0.500000 -0.492021
O2    O     O_3   0.000000 0.250000 0.500000 -0.496759
O3    O     O_3   0.500000 0.250000 0.500000 -0.492021
O4    O     O_3   0.500000 0.750000 0.500000 -0.496758
O5    O     O_R   0.887450 0.719640 0.335600 -0.628096
O6    O     O_R   0.112550 0.280360 0.664400 -0.622688
O7    O     O_R   0.112550 0.719640 0.664400 -0.628297
O8    O     O_R   0.887450 0.280360 0.335600 -0.629223
O9    O     O_R   0.387450 0.219640 0.335600 -0.628096
O10   O     O_R   0.612550 0.780360 0.664400 -0.622692
O11   O     O_R   0.612550 0.219640 0.664400 -0.628295
O12   O     O_R   0.387450 0.780360 0.335600 -0.629216
O13   O     O_R   0.094250 0.780350 0.456890 -0.663366
O14   O     O_R   0.905750 0.219650 0.543110 -0.632202
O15   O     O_R   0.905750 0.780350 0.543110 -0.660685
O16   O     O_R   0.094250 0.219650 0.456890 -0.636806
O17   O     O_R   0.594250 0.280350 0.456890 -0.663365
O18   O     O_R   0.405750 0.719650 0.543110 -0.632201
O19   O     O_R   0.405750 0.280350 0.543110 -0.660685
O20   O     O_R   0.594250 0.719650 0.456890 -0.636805
O21   O     O_R   0.008810 0.865800 0.456890 -0.636412
O22   O     O_R   0.991190 0.134200 0.543110 -0.619775
O23   O     O_R   0.991190 0.865800 0.543110 -0.636724
O24   O     O_R   0.008810 0.134200 0.456890 -0.617786
O25   O     O_R   0.508810 0.365800 0.456890 -0.636413
O26   O     O_R   0.491190 0.634200 0.543110 -0.619772
O27   O     O_R   0.491190 0.365800 0.543110 -0.636726
O28   O     O_R   0.508810 0.634200 0.456890 -0.617788
O29   O     O_R   0.948090 0.634190 0.456900 -0.632589
O30   O     O_R   0.051910 0.365810 0.543100 -0.631606
O31   O     O_R   0.051910 0.634190 0.543100 -0.632170
O32   O     O_R   0.948090 0.365810 0.456900 -0.631271
O33   O     O_R   0.448090 0.134190 0.456900 -0.632591
O34   O     O_R   0.551910 0.865810 0.543100 -0.631610
O35   O     O_R   0.551910 0.134190 0.543100 -0.632168
O36   O     O_R   0.448090 0.865810 0.456900 -0.631266
O37   O     O_R   0.137350 0.719630 0.543100 -0.604483
O38   O     O_R   0.862650 0.280370 0.456900 -0.627475
O39   O     O_R   0.862650 0.719630 0.456900 -0.606032
O40   O     O_R   0.137350 0.280370 0.543100 -0.620402
O41   O     O_R   0.637350 0.219630 0.543100 -0.604481
O42   O     O_R   0.362650 0.780370 0.456900 -0.627477
O43   O     O_R   0.362650 0.219630 0.456900 -0.606032
O44   O     O_R   0.637350 0.780370 0.543100 -0.620401
O45   O     O_R   0.948170 0.780360 0.335600 -0.638679
O46   O     O_R   0.051830 0.219640 0.664400 -0.647504
O47   O     O_R   0.051830 0.780360 0.664400 -0.640477
O48   O     O_R   0.948170 0.219640 0.335600 -0.633433
O49   O     O_R   0.448170 0.280360 0.335600 -0.638682
O50   O     O_R   0.551830 0.719640 0.664400 -0.647502
O51   O     O_R   0.551830 0.280360 0.664400 -0.640476
O52   O     O_R   0.448170 0.719640 0.335600 -0.633444
Zn1   Zn    Zn3+2 0.074160 0.706620 0.561580 1.002663
Zn2   Zn    Zn3+2 0.925840 0.293380 0.438420 0.993354
Zn3   Zn    Zn3+2 0.925840 0.706620 0.438420 1.002554
Zn4   Zn    Zn3+2 0.074160 0.293380 0.561580 0.999312
Zn5   Zn    Zn3+2 0.574160 0.206620 0.561580 1.002666
Zn6   Zn    Zn3+2 0.425840 0.793380 0.438420 0.993360
Zn7   Zn    Zn3+2 0.425840 0.206620 0.438420 1.002553
Zn8   Zn    Zn3+2 0.574160 0.793380 0.561580 0.999308
Zn9   Zn    Zn3+2 0.012590 0.793370 0.438410 0.987042
Zn10  Zn    Zn3+2 0.987410 0.206630 0.561590 1.002713
Zn11  Zn    Zn3+2 0.987410 0.793370 0.561590 0.988430
Zn12  Zn    Zn3+2 0.012590 0.206630 0.438410 1.012222
Zn13  Zn    Zn3+2 0.512590 0.293370 0.438410 0.987043
Zn14  Zn    Zn3+2 0.487410 0.706630 0.561590 1.002712
Zn15  Zn    Zn3+2 0.487410 0.293370 0.561590 0.988430
Zn16  Zn    Zn3+2 0.512590 0.706630 0.438410 1.012215
O53   O     O_3   0.985502 0.546789 0.714412 -0.694094
H17   H     H_    0.997152 0.583360 0.720027 0.356865
O54   O     O_3   0.060259 0.453043 0.323596 -0.698152
H18   H     H_    0.065974 0.415757 0.332466 0.350214
O55   O     O_3   0.017868 0.547763 0.288223 -0.685295
H19   H     H_    0.009938 0.584954 0.285770 0.360740
O56   O     O_3   0.940288 0.452972 0.676694 -0.697975
H20   H     H_    0.932577 0.415959 0.666091 0.350486
O57   O     O_3   0.485503 0.046789 0.714413 -0.694102
H21   H     H_    0.497151 0.083360 0.720027 0.356865
O58   O     O_3   0.560260 0.953043 0.323597 -0.698148
H22   H     H_    0.565975 0.915757 0.332467 0.350213
O59   O     O_3   0.517868 0.047763 0.288223 -0.685287
H23   H     H_    0.509938 0.084954 0.285770 0.360740
O60   O     O_3   0.440288 0.952972 0.676695 -0.697978
H24   H     H_    0.432578 0.915959 0.666092 0.350486
N1    N     N_2   0.073496 0.955546 0.762626 -0.321500
H25   H     H_    0.091651 0.982327 0.804588 0.237081
C185  C     C_3   0.039005 0.914854 0.769464 -0.761732
H26   H     H_    0.995203 0.930118 0.761138 0.231083
H27   H     H_    0.069426 0.897745 0.825805 0.260110
H28   H     H_    0.025674 0.884098 0.728028 0.262414
N2    N     N_2   0.025129 0.038682 0.293777 -0.304950
H29   H     H_    0.989943 0.040632 0.237677 0.235638
C186  C     C_3   0.083175 0.016286 0.310156 -0.767070
H30   H     H_    0.076850 0.974584 0.297772 0.246780
H31   H     H_    0.122743 0.022053 0.369413 0.247559
H32   H     H_    0.096232 0.035047 0.275644 0.242700
N3    N     N_2   0.933205 0.956833 0.240937 -0.318731
H33   H     H_    0.914088 0.983196 0.198435 0.224612
C187  C     C_3   0.962084 0.912594 0.231948 -0.748652
H34   H     H_    0.985133 0.924172 0.204486 0.236059
H35   H     H_    0.924660 0.883905 0.196236 0.258155
H36   H     H_    0.998111 0.894216 0.286118 0.253034
N4    N     N_2   0.994821 0.045351 0.719956 -0.327301
H37   H     H_    0.992751 0.020643 0.754861 0.240339
C188  C     C_3   0.033868 0.090002 0.758008 -0.755523
H38   H     H_    0.019686 0.107671 0.792074 0.256653
H39   H     H_    0.027679 0.119058 0.717503 0.268275
H40   H     H_    0.084712 0.078878 0.795148 0.231065
N5    N     N_2   0.573521 0.455549 0.762635 -0.321507
H41   H     H_    0.591681 0.482331 0.804597 0.237077
C189  C     C_3   0.539037 0.414858 0.769485 -0.761667
H42   H     H_    0.495239 0.430122 0.761170 0.231068
H43   H     H_    0.569465 0.397750 0.825826 0.260206
H44   H     H_    0.525698 0.384101 0.728048 0.262401
N6    N     N_2   0.525114 0.538682 0.293766 -0.304958
H45   H     H_    0.489926 0.540632 0.237666 0.235617
C190  C     C_3   0.583159 0.516286 0.310139 -0.767070
H46   H     H_    0.576832 0.474584 0.297755 0.246782
H47   H     H_    0.622730 0.522052 0.369396 0.247560
H48   H     H_    0.596213 0.535048 0.275625 0.242696
N7    N     N_2   0.433192 0.456832 0.240932 -0.318718
H49   H     H_    0.414073 0.483195 0.198430 0.224605
C191  C     C_3   0.462070 0.412593 0.231941 -0.748716
H50   H     H_    0.485114 0.424171 0.204472 0.236054
H51   H     H_    0.424646 0.383903 0.196234 0.258102
H52   H     H_    0.498102 0.394217 0.286110 0.253050
N8    N     N_2   0.494847 0.545353 0.719973 -0.327320
H53   H     H_    0.492783 0.520646 0.754884 0.240339
C192  C     C_3   0.533892 0.590006 0.758018 -0.755428
H54   H     H_    0.519717 0.607675 0.792089 0.256676
H55   H     H_    0.527697 0.619061 0.717508 0.268264
H56   H     H_    0.584738 0.578883 0.795151 0.231067
N9    N     N_2   0.910352 0.912184 0.340846 -0.285142
H57   H     H_    0.900819 0.891261 0.295911 0.266063
C193  C     C_3   0.853479 0.925600 0.335422 -0.744834
H58   H     H_    0.827276 0.956424 0.293542 0.245285
H59   H     H_    0.865438 0.938651 0.390007 0.234518
H60   H     H_    0.822218 0.891447 0.317924 0.287353
N10   N     N_2   0.927367 0.079192 0.569658 -0.255281
H61   H     H_    0.920318 0.095158 0.607000 0.259678
C194  C     C_3   0.868556 0.063287 0.501470 -0.714229
H62   H     H_    0.832115 0.093620 0.482981 0.254658
H63   H     H_    0.851135 0.027213 0.510702 0.225364
H64   H     H_    0.875147 0.057392 0.456584 0.239345
N11   N     N_2   0.091916 0.910793 0.659133 -0.287105
H65   H     H_    0.102393 0.889917 0.704496 0.264120
C195  C     C_3   0.148243 0.923926 0.663146 -0.742464
H66   H     H_    0.179376 0.889757 0.680448 0.290338
H67   H     H_    0.174985 0.954895 0.704657 0.245577
H68   H     H_    0.135505 0.936647 0.608107 0.233444
N12   N     N_2   0.077684 0.080469 0.437120 -0.252763
H69   H     H_    0.084021 0.098365 0.400271 0.263602
C196  C     C_3   0.136584 0.066644 0.506614 -0.736046
H70   H     H_    0.171331 0.098433 0.525234 0.252107
H71   H     H_    0.156742 0.031480 0.499400 0.224728
H72   H     H_    0.128907 0.059987 0.550485 0.240179
N13   N     N_2   0.410348 0.412184 0.340848 -0.285146
H73   H     H_    0.400814 0.391260 0.295912 0.266061
C197  C     C_3   0.353475 0.425599 0.335425 -0.744840
H74   H     H_    0.327271 0.456423 0.293546 0.245287
H75   H     H_    0.365435 0.438651 0.390011 0.234518
H76   H     H_    0.322214 0.391446 0.317928 0.287359
N14   N     N_2   0.427377 0.579191 0.569671 -0.255281
H77   H     H_    0.420330 0.595155 0.607017 0.259674
C198  C     C_3   0.368565 0.563287 0.501486 -0.714221
H78   H     H_    0.332123 0.593619 0.483001 0.254653
H79   H     H_    0.351145 0.527212 0.510718 0.225361
H80   H     H_    0.375152 0.557393 0.456597 0.239345
N15   N     N_2   0.591924 0.410792 0.659131 -0.287108
H81   H     H_    0.602401 0.389915 0.704492 0.264126
C199  C     C_3   0.648249 0.423927 0.663142 -0.742462
H82   H     H_    0.679382 0.389758 0.680442 0.290343
H83   H     H_    0.674992 0.454895 0.704654 0.245578
H84   H     H_    0.635510 0.436649 0.608103 0.233442
N16   N     N_2   0.577678 0.580469 0.437111 -0.252761
H85   H     H_    0.584012 0.598364 0.400260 0.263600
C200  C     C_3   0.636580 0.566643 0.506603 -0.736042
H86   H     H_    0.671326 0.598432 0.525221 0.252105
H87   H     H_    0.656736 0.531479 0.499386 0.224727
H88   H     H_    0.628905 0.559986 0.550476 0.240179
N17   N     N_2   0.967574 0.599413 0.358689 -0.295629
H89   H     H_    0.992915 0.628367 0.355192 0.204391
C201  C     C_3   0.902193 0.595053 0.294720 -0.676664
H90   H     H_    0.879871 0.633459 0.278259 0.242304
H91   H     H_    0.874990 0.570661 0.308369 0.243357
H92   H     H_    0.899469 0.578201 0.246776 0.239283
N18   N     N_2   0.928314 0.400982 0.554276 -0.294282
H93   H     H_    0.945370 0.372102 0.593209 0.200946
C202  C     C_3   0.859774 0.405271 0.506499 -0.697096
H94   H     H_    0.838202 0.366855 0.486131 0.243569
H95   H     H_    0.844786 0.429776 0.457763 0.248087
H96   H     H_    0.841671 0.421923 0.537151 0.232161
N19   N     N_2   0.034192 0.599001 0.642338 -0.295847
H97   H     H_    0.009671 0.627733 0.647647 0.206830
C203  C     C_3   0.100220 0.594341 0.704553 -0.681021
H98   H     H_    0.122618 0.632739 0.721390 0.242983
H99   H     H_    0.126263 0.570584 0.688633 0.245540
H100  H     H_    0.104541 0.576602 0.752994 0.235478
N20   N     N_2   0.071312 0.400814 0.445167 -0.295452
H101  H     H_    0.053852 0.372009 0.406042 0.200079
C204  C     C_3   0.139901 0.404777 0.492580 -0.692382
H102  H     H_    0.161174 0.366284 0.512702 0.242848
H103  H     H_    0.155350 0.429285 0.541484 0.248313
H104  H     H_    0.157898 0.421240 0.461713 0.233972
N21   N     N_2   0.467574 0.099413 0.358689 -0.295641
H105  H     H_    0.492915 0.128367 0.355192 0.204391
C205  C     C_3   0.402193 0.095053 0.294721 -0.676603
H106  H     H_    0.379871 0.133459 0.278260 0.242309
H107  H     H_    0.374990 0.070661 0.308371 0.243351
H108  H     H_    0.399468 0.078200 0.246777 0.239295
N22   N     N_2   0.428315 0.900982 0.554277 -0.294282
H109  H     H_    0.445370 0.872102 0.593209 0.200943
C206  C     C_3   0.359774 0.905271 0.506500 -0.697089
H110  H     H_    0.338202 0.866855 0.486132 0.243567
H111  H     H_    0.344786 0.929776 0.457763 0.248087
H112  H     H_    0.341671 0.921923 0.537152 0.232161
N23   N     N_2   0.534192 0.099001 0.642338 -0.295832
H113  H     H_    0.509670 0.127733 0.647646 0.206830
C207  C     C_3   0.600220 0.094341 0.704554 -0.681093
H114  H     H_    0.622617 0.132740 0.721391 0.242976
H115  H     H_    0.626263 0.070584 0.688635 0.245550
H116  H     H_    0.604540 0.076603 0.752995 0.235458
N24   N     N_2   0.571312 0.900814 0.445167 -0.295451
H117  H     H_    0.553852 0.872009 0.406043 0.200083
C208  C     C_3   0.639901 0.904777 0.492580 -0.692392
H118  H     H_    0.661175 0.866284 0.512702 0.242850
H119  H     H_    0.655350 0.929285 0.541485 0.248313
H120  H     H_    0.657899 0.921240 0.461714 0.233972
O61   O     O_3   0.136309 0.795174 0.948528 -0.749281
H121  H     H_    0.138072 0.804525 0.993171 0.328860
O62   O     O_3   0.862969 0.204934 0.050998 -0.738726
H122  H     H_    0.861171 0.195676 0.006305 0.329421
O63   O     O_3   0.867230 0.787323 0.051681 -0.748316
H123  H     H_    0.866255 0.794976 0.007094 0.330305
O64   O     O_3   0.133154 0.212410 0.948566 -0.741864
H124  H     H_    0.134147 0.204791 0.993174 0.330182
O65   O     O_3   0.636403 0.295353 0.948529 -0.749362
H125  H     H_    0.638188 0.304747 0.993172 0.328842
O66   O     O_3   0.363062 0.705112 0.050999 -0.738681
H126  H     H_    0.361285 0.695896 0.006306 0.329437
O67   O     O_3   0.367288 0.287186 0.051681 -0.748268
H127  H     H_    0.366325 0.294806 0.007094 0.330314
O68   O     O_3   0.633212 0.712271 0.948567 -0.741913
H128  H     H_    0.634217 0.704619 0.993174 0.330168
N25   N     N_2   0.769962 0.349538 0.053371 -0.284756
H129  H     H_    0.757705 0.354082 0.089914 0.222075
C209  C     C_3   0.745452 0.389693 0.998189 -0.705780
H130  H     H_    0.758733 0.427653 0.026162 0.231476
H131  H     H_    0.692871 0.387328 0.959794 0.249782
H132  H     H_    0.766048 0.386618 0.966025 0.251165
N26   N     N_2   0.229354 0.650917 0.945816 -0.289688
H133  H     H_    0.241645 0.646495 0.909285 0.219337
C210  C     C_3   0.253441 0.610502 0.000539 -0.712750
H134  H     H_    0.240023 0.572684 0.972161 0.231190
H135  H     H_    0.232628 0.613443 0.032479 0.250367
H136  H     H_    0.306018 0.612678 0.039154 0.253576
N27   N     N_2   0.239012 0.348368 0.947106 -0.284428
H137  H     H_    0.251624 0.350365 0.910635 0.223688
C211  C     C_3   0.267125 0.388506 0.002518 -0.711614
H138  H     H_    0.257293 0.426329 0.974765 0.231416
H139  H     H_    0.319357 0.383214 0.040938 0.252246
H140  H     H_    0.246349 0.388496 0.034630 0.249487
N28   N     N_2   0.761766 0.651289 0.053388 -0.288601
H141  H     H_    0.749273 0.649295 0.089972 0.220876
C212  C     C_3   0.733854 0.611002 0.998219 -0.724823
H142  H     H_    0.743880 0.573250 0.026201 0.230936
H143  H     H_    0.754643 0.611001 0.966121 0.249276
H144  H     H_    0.681597 0.616130 0.959769 0.253572
N29   N     N_2   0.269757 0.849526 0.053371 -0.284752
H145  H     H_    0.257489 0.854009 0.089914 0.222088
C213  C     C_3   0.245165 0.889687 0.998191 -0.705854
H146  H     H_    0.258368 0.927646 0.026164 0.231452
H147  H     H_    0.192590 0.887256 0.959795 0.249777
H148  H     H_    0.265769 0.886687 0.966029 0.251155
N30   N     N_2   0.729149 0.150907 0.945816 -0.289688
H149  H     H_    0.741431 0.146424 0.909283 0.219311
C214  C     C_3   0.753155 0.110498 0.000540 -0.712660
H150  H     H_    0.739658 0.072680 0.972161 0.231215
H151  H     H_    0.732351 0.113515 0.032482 0.250384
H152  H     H_    0.805737 0.112607 0.039151 0.253555
N31   N     N_2   0.738860 0.848389 0.947106 -0.284429
H153  H     H_    0.751470 0.850433 0.910635 0.223677
C215  C     C_3   0.766912 0.888528 0.002518 -0.711555
H154  H     H_    0.757022 0.926357 0.974764 0.231424
H155  H     H_    0.819152 0.883286 0.040939 0.252238
H156  H     H_    0.746134 0.888463 0.034628 0.249497
N32   N     N_2   0.261614 0.151312 0.053387 -0.288602
H157  H     H_    0.249117 0.149364 0.089969 0.220896
C216  C     C_3   0.233641 0.111026 0.998217 -0.724877
H158  H     H_    0.243607 0.073279 0.026199 0.230930
H159  H     H_    0.254432 0.110969 0.966121 0.249259
H160  H     H_    0.181392 0.116204 0.959766 0.253597
O69   O     O_3   0.925152 0.655649 0.729116 -0.761503
H161  H     H_    0.916840 0.626643 0.751309 0.366612
O70   O     O_3   0.071740 0.333704 0.261766 -0.751946
H162  H     H_    0.078231 0.362161 0.237169 0.358877
O71   O     O_3   0.072667 0.662121 0.265204 -0.758849
H163  H     H_    0.071457 0.660672 0.219618 0.358628
O72   O     O_3   0.928045 0.334502 0.737812 -0.751045
H164  H     H_    0.921496 0.362966 0.762352 0.359387
O73   O     O_3   0.425151 0.155648 0.729115 -0.761522
H165  H     H_    0.416839 0.126642 0.751307 0.366613
O74   O     O_3   0.571740 0.833703 0.261766 -0.751920
H166  H     H_    0.578231 0.862161 0.237169 0.358878
O75   O     O_3   0.572667 0.162122 0.265203 -0.758834
H167  H     H_    0.571457 0.160673 0.219617 0.358634
O76   O     O_3   0.428044 0.834502 0.737812 -0.751067
H168  H     H_    0.421496 0.862967 0.762351 0.359388
O77   O     O_3   0.795947 0.813635 0.382472 -0.732653
H169  H     H_    0.823862 0.834860 0.427466 0.314076
O78   O     O_3   0.202514 0.192256 0.617930 -0.778897
H170  H     H_    0.210444 0.168462 0.657354 0.375182
O79   O     O_3   0.203934 0.813581 0.617366 -0.734305
H171  H     H_    0.176016 0.834879 0.572497 0.313566
O80   O     O_3   0.799117 0.188908 0.385721 -0.780845
H172  H     H_    0.789421 0.171847 0.340245 0.377650
O81   O     O_3   0.295947 0.313635 0.382472 -0.732655
H173  H     H_    0.323862 0.334860 0.427466 0.314076
O82   O     O_3   0.702515 0.692256 0.617931 -0.778895
H174  H     H_    0.710445 0.668462 0.657354 0.375184
O83   O     O_3   0.703935 0.313579 0.617368 -0.734305
H175  H     H_    0.676016 0.334877 0.572500 0.313564
O84   O     O_3   0.299117 0.688907 0.385722 -0.780846
H176  H     H_    0.289422 0.671845 0.340246 0.377648
O85   O     O_3   0.683438 0.838339 0.260114 -0.726705
H177  H     H_    0.641144 0.831633 0.213560 0.339157
O86   O     O_3   0.318812 0.157877 0.739482 -0.781179
H178  H     H_    0.362576 0.162641 0.784552 0.354562
O87   O     O_3   0.316353 0.838914 0.739495 -0.727842
H179  H     H_    0.358674 0.832367 0.786063 0.339448
O88   O     O_3   0.686619 0.142429 0.273686 -0.784616
H180  H     H_    0.653870 0.115403 0.255910 0.362089
O89   O     O_3   0.183438 0.338339 0.260114 -0.726705
H181  H     H_    0.141144 0.331634 0.213560 0.339154
O90   O     O_3   0.818813 0.657878 0.739483 -0.781180
H182  H     H_    0.862577 0.662642 0.784553 0.354566
O91   O     O_3   0.816354 0.338912 0.739497 -0.727845
H183  H     H_    0.858675 0.332365 0.786065 0.339450
O92   O     O_3   0.186620 0.642428 0.273687 -0.784616
H184  H     H_    0.153870 0.615402 0.255911 0.362090

loop_
_geom_bond_atom_site_label_1
_geom_bond_atom_site_label_2
_ccdc_geom_bond_type
C211  H138  S    
C74   H10   S    
N13   H73   S    
N22   C206  S    
C192  H55   S    
C208  H118  S    
N2    H29   S    
C34   C42   S    
C136  C140  A    
C161  C164  A    
C79   C87   A    
C152  C165  A    
O2    Zn12  S    
O33   Zn7   S    
C170  C176  A    
O65   H125  S    
O34   Zn8   S    
O82   H174  S    
C126  C127  A    
C38   C181  S    
O38   Zn2   S    
C117  N13   S    
C86   C110  A    
C13   O65   S    
C92   C109  S    
O54   H18   S    
O75   H167  S    
C212  H144  S    
C62   C70   A    
C89   O37   A    
N20   C204  S    
C120  C133  A    
N27   H137  S    
C205  H108  S    
C96   O44   A    
C200  H88   S    
C91   O15   A    
O28   Zn16  S    
C88   C104  A    
O2    Zn4   S    
O70   H162  S    
C16   O68   S    
C95   O19   A    
C185  H27   S    
C116  C124  A    
N11   H65   S    
C21   C45   T    
C4    C18   S    
N5    C189  S    
O7    Zn1   S    
C206  H111  S    
C98   C109  A    
C29   C177  S    
O42   Zn6   S    
C64   O92   S    
C36   C179  S    
O2    Zn10  S    
C73   C81   A    
C196  H71   S    
O3    Zn7   S    
C4    O8    A    
O4    Zn16  S    
C127  N5    S    
C166  C174  A    
C115  C123  A    
C6    O50   A    
N28   H141  S    
C84   C100  A    
C207  H116  S    
N24   C208  S    
C193  H59   S    
C147  C176  S    
C27   C35   S    
N9    H57   S    
C153  C161  A    
C190  H48   S    
C135  C139  A    
C209  H131  S    
N30   C214  S    
C69   O70   S    
N4    H37   S    
C55   O83   S    
O83   H175  S    
C78   H14   S    
C120  C128  A    
C14   O66   S    
N32   C216  S    
C15   C39   S    
C16   C40   S    
C87   C103  A    
C26   C182  S    
C63   C71   A    
O11   Zn5   S    
C157  C160  A    
O39   Zn3   S    
N17   H89   S    
C10   C182  S    
C208  H120  S    
C36   C44   S    
C37   C45   S    
C201  H90   S    
C130  C138  A    
O51   Zn15  S    
C90   O14   A    
C32   C40   S    
C53   O81   S    
C39   C47   S    
C40   C48   S    
C26   C34   S    
O36   Zn6   S    
C143  O27   A    
C138  C141  S    
C113  N9    S    
C114  N10   S    
N16   H85   S    
C150  N18   S    
N19   H97   S    
O50   Zn14  S    
O21   Zn9   S    
C25   N26   S    
C3    O7    A    
C11   C35   S    
C130  C131  A    
O59   H23   S    
N1    C185  S    
C1    O45   A    
N21   H105  S    
O27   Zn15  S    
O77   H169  S    
O18   Zn14  S    
C202  H94   S    
C3    C17   S    
C2    O46   A    
N25   H129  S    
C27   C183  S    
C49   C97   A    
C193  H58   S    
C178  H2    S    
C215  H156  S    
C87   C111  A    
C100  C111  A    
C80   C88   A    
N7    H49   S    
C7    O51   A    
C197  H74   S    
C32   C180  S    
C34   C177  S    
O3    Zn15  S    
C182  H6    S    
C156  N24   S    
C198  H78   S    
C52   O80   S    
O10   Zn8   S    
C104  C107  A    
O47   Zn11  S    
O3    Zn5   S    
C67   O76   S    
O48   Zn12  S    
C159  O53   S    
C137  C142  S    
C120  N16   S    
C15   C179  S    
C69   C77   A    
N12   H69   S    
O44   Zn8   S    
C140  C143  S    
C57   O85   S    
O45   Zn9   S    
C71   C79   A    
C204  H102  S    
C158  O56   S    
O2    Zn2   S    
C162  O60   S    
C168  C174  A    
C211  H139  S    
C30   C38   S    
N2    C186  S    
C18   C42   T    
O1    Zn1   S    
O9    Zn7   S    
C195  H67   S    
C170  C171  A    
C37   C182  S    
N20   H101  S    
C66   C74   A    
C49   C57   A    
C93   O17   A    
O49   Zn13  S    
C52   C60   A    
C59   C67   A    
C53   C61   A    
O62   H122  S    
C188  H39   S    
C55   C63   A    
C126  N8    S    
C202  H96   S    
C8    C22   S    
C56   C64   A    
C2    O6    A    
C180  H4    S    
C39   C184  S    
C40   C183  S    
C16   C27   S    
C77   C85   A    
O57   H21   S    
C119  N15   S    
C181  H5    S    
C90   C111  S    
C143  O25   A    
N29   H145  S    
C59   O87   S    
O25   Zn13  S    
N23   C207  S    
N31   H153  S    
O30   Zn4   S    
C27   N28   S    
C194  H63   S    
C81   C105  A    
C94   C107  S    
C50   C98   A    
C119  C134  A    
C23   C47   T    
C82   C98   A    
C24   C48   T    
C10   C34   S    
C198  H80   S    
N8    C192  S    
C163  O57   S    
C155  C163  A    
C52   C100  A    
O13   Zn9   S    
C191  H51   S    
C66   O73   S    
C151  C159  A    
C68   O75   S    
N24   H117  S    
C186  H30   S    
C95   C106  S    
C215  H154  S    
C5    C23   S    
N14   H77   S    
C199  H84   S    
C6    C24   S    
O87   H179  S    
C30   C178  S    
C129  C137  A    
C216  H159  S    
C28   C36   S    
C14   C178  S    
C9    C30   S    
C141  O23   A    
C11   C32   S    
C20   C44   T    
C189  H43   S    
C12   C31   S    
O85   H177  S    
C13   C26   S    
C67   C75   A    
O80   H172  S    
C86   C102  A    
C204  H104  S    
C202  H95   S    
C101  C106  A    
C145  O29   A    
C8    O52   A    
C50   O78   S    
C154  C162  A    
N18   C202  S    
O46   Zn10  S    
C7    O11   A    
O74   H166  S    
C134  C135  A    
C70   O69   S    
C68   C76   A    
C128  N6    S    
C5    O9    A    
C147  O35   A    
O60   H24   S    
C28   C184  S    
C201  H92   S    
C72   C80   A    
C93   O41   A    
C195  H68   S    
C149  C157  A    
C153  C172  A    
O12   Zn6   S    
C212  H143  S    
C154  C171  A    
C197  H76   S    
C205  H107  S    
C187  H36   S    
C200  H87   S    
C9    C181  S    
C149  N17   S    
N26   H133  S    
C155  C170  A    
C113  C121  A    
C145  C174  S    
C141  O21   A    
N32   H157  S    
C8    O12   A    
C117  C125  A    
C58   O86   S    
O78   H170  S    
C16   C180  S    
C25   C33   S    
N15   C199  S    
C115  C130  A    
C119  C127  A    
C96   C105  S    
C206  H110  S    
C113  C132  A    
C73   H9    S    
C49   O77   S    
C114  C131  A    
O56   H20   S    
C76   C84   A    
O23   Zn11  S    
C196  H70   S    
C85   C101  A    
O24   Zn12  S    
C149  C168  A    
C89   C112  S    
O19   Zn15  S    
C91   C110  S    
O37   Zn1   S    
C70   C78   A    
C207  H115  S    
C186  H32   S    
C85   C109  A    
C93   C108  S    
C157  O55   S    
O81   H173  S    
C203  H100  S    
C161  O59   S    
C179  H3    S    
C62   O90   S    
C132  C138  A    
C199  H82   S    
C177  H1    S    
C63   O91   S    
C102  C105  A    
C192  H54   S    
C210  H135  S    
C76   H12   S    
O29   Zn3   S    
O4    Zn6   S    
C72   O71   S    
O52   Zn16  S    
C115  N11   S    
C207  H114  S    
C53   C101  A    
C19   C43   T    
C121  N3    S    
O58   H22   S    
C184  H8    S    
C164  O58   S    
N11   C195  S    
O5    Zn3   S    
C167  C173  A    
C129  C132  A    
N29   C213  S    
C145  O31   A    
N6    H45   S    
N13   C197  S    
C83   C99   A    
O89   H181  S    
C9    C33   S    
C208  H119  S    
C3    O47   A    
C74   C82   A    
O22   Zn10  S    
C190  H47   S    
N9    C193  S    
C1    C19   S    
C79   H15   S    
C2    C20   S    
C209  H130  S    
C50   C58   A    
O15   Zn11  S    
C29   N30   S    
C12   O64   S    
O32   Zn2   S    
C32   N31   S    
O16   Zn12  S    
C195  H66   S    
C90   O38   A    
C54   C62   A    
O61   H121  S    
C151  N19   S    
C191  H50   S    
C31   C179  S    
O66   H126  S    
N1    H25   S    
C131  C137  A    
C5    O49   A    
N10   H61   S    
O84   H176  S    
C116  N12   S    
C169  C175  A    
C185  H28   S    
N3    C187  S    
O43   Zn7   S    
C15   O67   S    
C56   C104  A    
C28   N27   S    
C22   C46   T    
C206  H112  S    
O17   Zn13  S    
C196  H72   S    
C89   O13   A    
C162  C163  A    
C56   O84   S    
C214  H151  S    
C160  O54   S    
C150  C158  A    
O14   Zn10  S    
C57   C65   A    
C31   N32   S    
C193  H60   S    
C203  H98   S    
N12   C196  S    
C9    O61   S    
C11   O63   S    
C125  N7    S    
C33   C41   S    
C213  H147  S    
C51   O79   S    
C209  H132  S    
N8    H53   S    
C96   O20   A    
C7    C21   S    
C192  H56   S    
O4    Zn8   S    
C10   C29   S    
C75   C83   A    
C15   C28   S    
C12   C184  S    
C13   C177  S    
C150  C167  A    
C84   C108  A    
C26   N25   S    
C92   O16   A    
C148  O34   A    
C14   C25   S    
C65   O74   S    
O31   Zn1   S    
C152  N20   S    
C88   C112  A    
C60   C68   A    
C153  N21   S    
C188  H38   S    
C29   C37   S    
N22   H109  S    
N17   C201  S    
C117  C136  A    
C77   H13   S    
C118  C135  A    
O72   H164  S    
N26   C210  S    
C75   H11   S    
C189  H42   S    
C152  C160  A    
C210  H136  S    
N3    H33   S    
C213  H146  S    
C124  N2    S    
O6    Zn4   S    
N23   H113  S    
C65   C73   A    
O76   H168  S    
C146  O32   A    
N5    H41   S    
N19   C203  S    
C92   O40   A    
C154  N22   S    
C214  H150  S    
O90   H182  S    
O41   Zn5   S    
O1    Zn9   S    
O79   H171  S    
C214  H152  S    
C198  H79   S    
C134  C140  A    
N21   C205  S    
C14   C38   S    
C165  C173  A    
O86   H178  S    
C80   H16   S    
C146  C173  S    
C55   C103  A    
C156  C169  A    
C94   O18   A    
O53   H17   S    
O88   H180  S    
O71   H163  S    
O40   Zn4   S    
N27   C211  S    
C10   O62   S    
N25   C209  S    
C4    O48   A    
C121  C124  A    
C123  N1    S    
C61   O89   S    
C58   C66   A    
C116  C129  A    
C185  H26   S    
C31   C39   S    
C199  H83   S    
C133  C136  A    
C205  H106  S    
C103  C108  A    
C12   C36   S    
C1    O5    A    
C216  H158  S    
C13   C37   S    
C78   C86   A    
C82   C106  A    
C54   C102  A    
C30   N29   S    
N14   C198  S    
C144  O26   A    
C190  H46   S    
O8    Zn2   S    
C142  O24   A    
C204  H103  S    
C25   C181  S    
N16   C200  S    
C51   C99   A    
C211  H140  S    
N6    C190  S    
C148  C175  S    
C38   C46   S    
C11   C183  S    
O3    Zn13  S    
C213  H148  S    
N30   H149  S    
C187  H34   S    
N7    C191  S    
O91   H183  S    
O1    Zn3   S    
C171  C175  A    
C118  N14   S    
C148  O36   A    
C122  N4    S    
C201  H91   S    
C60   O88   S    
C125  C128  A    
C139  C144  S    
O35   Zn5   S    
C188  H40   S    
C212  H142  S    
C197  H75   S    
C155  N23   S    
C187  H35   S    
C200  H86   S    
O26   Zn14  S    
C54   O82   S    
C147  O33   A    
N10   C194  S    
C165  C168  A    
C166  C167  A    
C169  C172  A    
C51   C59   A    
O20   Zn16  S    
O92   H184  S    
C35   C43   S    
N4    C188  S    
N15   H81   S    
C146  O30   A    
C194  H64   S    
C61   C69   A    
C35   C180  S    
C215  H155  S    
C33   C178  S    
O1    Zn11  S    
C183  H7    S    
C133  C139  A    
C6    O10   A    
O4    Zn14  S    
C151  C166  A    
C191  H52   S    
O69   H161  S    
C94   O42   A    
O68   H128  S    
C186  H31   S    
C97   C110  A    
C203  H99   S    
O67   H127  S    
C158  C159  A    
C81   C97   A    
C99   C112  A    
N31   C215  S    
C83   C107  A    
C64   C72   A    
C210  H134  S    
C216  H160  S    
C17   C41   T    
C71   O72   S    
O64   H124  S    
C114  C122  A    
C172  C176  A    
C156  C164  A    
O63   H123  S    
C189  H44   S    
C91   O39   A    
N28   C212  S    
C194  H62   S    
C144  O28   A    
C118  C126  A    
C122  C123  A    
O73   H165  S    
C142  O22   A    
N18   H93   S    
C95   O43   A    
O55   H19   S    
