data_mof_unit_2042.cif
_audit_creation_date              2013-03-05T16:20:08-0500
_audit_creation_method            fapswitch 2.2
_symmetry_space_group_name_H-M    P1
_symmetry_Int_Tables_number       1
_space_group_crystal_system       triclinic
_cell_length_a                    26.06366
_cell_length_b                    34.487145
_cell_length_c                    21.682488
_cell_angle_alpha                 89.992023
_cell_angle_beta                  127.423353
_cell_angle_gamma                 90.002739
_cell_volume                      15477.9553499

loop_
_atom_site_label
_atom_site_type_symbol
_atom_site_description
_atom_site_fract_x
_atom_site_fract_y
_atom_site_fract_z
_atom_type_partial_charge
Zn1   Zn    Zn3+2 0.989110 0.282490 0.064980 0.964634
Zn2   Zn    Zn3+2 0.010890 0.717510 0.935020 0.962808
Zn3   Zn    Zn3+2 0.010890 0.282490 0.935020 0.965677
Zn4   Zn    Zn3+2 0.989110 0.717510 0.064980 0.965685
Zn5   Zn    Zn3+2 0.489110 0.782490 0.064980 0.968390
Zn6   Zn    Zn3+2 0.510890 0.217510 0.935020 0.964292
Zn7   Zn    Zn3+2 0.510890 0.782490 0.935020 0.965028
Zn8   Zn    Zn3+2 0.489110 0.217510 0.064980 0.964507
Zn9   Zn    Zn3+2 0.075880 0.217510 0.064980 0.975789
Zn10  Zn    Zn3+2 0.924120 0.782490 0.935020 0.976974
Zn11  Zn    Zn3+2 0.924120 0.217510 0.935020 0.978436
Zn12  Zn    Zn3+2 0.075880 0.782490 0.064980 0.970486
Zn13  Zn    Zn3+2 0.575880 0.717510 0.064980 0.974547
Zn14  Zn    Zn3+2 0.424120 0.282490 0.935020 0.970448
Zn15  Zn    Zn3+2 0.424120 0.717510 0.935020 0.975441
Zn16  Zn    Zn3+2 0.575880 0.282490 0.064980 0.976324
C1    C     C_R   0.998959 0.021107 0.998677 -0.148849
C2    C     C_R   0.998435 0.978410 0.997813 -0.150369
C3    C     C_R   0.499813 0.521046 0.999008 -0.115830
C4    C     C_R   0.499739 0.478387 0.998712 -0.119177
O1    O     O_3   0.000000 0.250000 0.000000 -0.482123
O2    O     O_3   0.000000 0.750000 0.000000 -0.482419
O3    O     O_3   0.500000 0.750000 0.000000 -0.481857
O4    O     O_3   0.500000 0.250000 0.000000 -0.482124
O5    O     O_R   0.093070 0.272740 0.954520 -0.650940
O6    O     O_R   0.906930 0.727260 0.045480 -0.645210
O7    O     O_R   0.906930 0.272740 0.045480 -0.651251
O8    O     O_R   0.093070 0.727260 0.954520 -0.645862
O9    O     O_R   0.593070 0.772740 0.954520 -0.650880
O10   O     O_R   0.406930 0.227260 0.045480 -0.645679
O11   O     O_R   0.406930 0.772740 0.045480 -0.650348
O12   O     O_R   0.593070 0.227260 0.954520 -0.645936
O13   O     O_R   0.117100 0.227270 0.173460 -0.641141
O14   O     O_R   0.882900 0.772730 0.826540 -0.635480
O15   O     O_R   0.882900 0.227270 0.826540 -0.640559
O16   O     O_R   0.117100 0.772730 0.173460 -0.643047
O17   O     O_R   0.617100 0.727270 0.173460 -0.641487
O18   O     O_R   0.382900 0.272730 0.826540 -0.644253
O19   O     O_R   0.382900 0.727270 0.826540 -0.643924
O20   O     O_R   0.617100 0.272730 0.173460 -0.635092
O21   O     O_R   0.053120 0.163270 0.045480 -0.647295
O22   O     O_R   0.946880 0.836730 0.954520 -0.640644
O23   O     O_R   0.946880 0.163270 0.954520 -0.645365
O24   O     O_R   0.053120 0.836730 0.045480 -0.641902
O25   O     O_R   0.553120 0.663270 0.045480 -0.647938
O26   O     O_R   0.446880 0.336730 0.954520 -0.639920
O27   O     O_R   0.446880 0.663270 0.954520 -0.646604
O28   O     O_R   0.553120 0.336730 0.045480 -0.641572
O29   O     O_R   0.007620 0.336730 0.954520 -0.643290
O30   O     O_R   0.992380 0.663270 0.045480 -0.645440
O31   O     O_R   0.992380 0.336730 0.045480 -0.643878
O32   O     O_R   0.007620 0.663270 0.954520 -0.646203
O33   O     O_R   0.507620 0.836730 0.954520 -0.643945
O34   O     O_R   0.492380 0.163270 0.045480 -0.645171
O35   O     O_R   0.492380 0.836730 0.045480 -0.642996
O36   O     O_R   0.507620 0.163270 0.954520 -0.645883
O37   O     O_R   0.056370 0.272740 0.173460 -0.643412
O38   O     O_R   0.943630 0.727260 0.826540 -0.648331
O39   O     O_R   0.943630 0.272740 0.826540 -0.644557
O40   O     O_R   0.056370 0.727260 0.173460 -0.642923
O41   O     O_R   0.556370 0.772740 0.173460 -0.640220
O42   O     O_R   0.443630 0.227260 0.826540 -0.645729
O43   O     O_R   0.443630 0.772740 0.826540 -0.645541
O44   O     O_R   0.556370 0.227260 0.173460 -0.646164
O45   O     O_R   0.138550 0.227260 0.045470 -0.635167
O46   O     O_R   0.861450 0.772740 0.954530 -0.637482
O47   O     O_R   0.861450 0.227260 0.954530 -0.634500
O48   O     O_R   0.138550 0.772740 0.045470 -0.638206
O49   O     O_R   0.638550 0.727260 0.045470 -0.636291
O50   O     O_R   0.361450 0.272740 0.954530 -0.638582
O51   O     O_R   0.361450 0.727260 0.954530 -0.635125
O52   O     O_R   0.638550 0.272740 0.045470 -0.636791
C5    C     C_R   0.140185 0.249576 0.000025 0.804597
C6    C     C_R   0.859351 0.749993 0.999100 0.803207
C7    C     C_R   0.859922 0.249526 0.000196 0.804936
C8    C     C_R   0.140503 0.750107 0.000618 0.803432
C9    C     C_R   0.640105 0.749546 0.999851 0.805769
C10   C     C_R   0.359485 0.250106 0.999356 0.803109
C11   C     C_R   0.359880 0.749548 0.000100 0.805531
C12   C     C_R   0.640594 0.250051 0.000799 0.803814
C13   C     C_R   0.105124 0.249928 0.210179 0.813019
C14   C     C_R   0.894794 0.750044 0.789717 0.817907
C15   C     C_R   0.894968 0.249818 0.789704 0.814288
C16   C     C_R   0.105189 0.750031 0.210153 0.810101
C17   C     C_R   0.605181 0.749937 0.210159 0.813839
C18   C     C_R   0.394567 0.249943 0.789672 0.812891
C19   C     C_R   0.394739 0.749958 0.789721 0.817299
C20   C     C_R   0.605571 0.249835 0.210273 0.811130
C21   C     C_R   0.999981 0.144796 0.000046 0.860825
C22   C     C_R   0.999975 0.855062 0.999955 0.850012
C23   C     C_R   0.500001 0.644765 0.999939 0.860236
C24   C     C_R   0.500031 0.355068 0.999899 0.852409
C25   C     C_R   0.999991 0.355071 0.999988 0.784465
C26   C     C_R   0.999979 0.644930 0.999984 0.780204
C27   C     C_R   0.499992 0.855071 0.999989 0.784869
C28   C     C_R   0.499987 0.144930 0.999992 0.780968
C29   C     C_R   0.026937 0.458182 0.970043 -0.174870
C30   C     C_R   0.011408 0.541822 0.063134 -0.173831
C31   C     C_R   0.972665 0.458154 0.029564 -0.173413
C32   C     C_R   0.988156 0.541856 0.936488 -0.174050
C33   C     C_R   0.527061 0.958176 0.970183 -0.171835
C34   C     C_R   0.511377 0.041823 0.063142 -0.172460
C35   C     C_R   0.472646 0.958154 0.029527 -0.173290
C36   C     C_R   0.488314 0.041851 0.936598 -0.172864
H1    H     H_    0.049176 0.473295 0.948007 0.139376
H2    H     H_    0.021626 0.526706 0.113272 0.134490
H3    H     H_    0.950381 0.473245 0.051561 0.140822
H4    H     H_    0.977902 0.526768 0.886314 0.133848
H5    H     H_    0.549364 0.973287 0.948224 0.141918
H6    H     H_    0.521526 0.026710 0.113247 0.135238
H7    H     H_    0.450311 0.973247 0.051460 0.140992
H8    H     H_    0.478138 0.026761 0.886466 0.134364
C37   C     C_R   0.026593 0.417862 0.969611 -0.181946
C38   C     C_R   0.011014 0.582140 0.062937 -0.184504
C39   C     C_R   0.973160 0.417836 0.030141 -0.181631
C40   C     C_R   0.988676 0.582175 0.936801 -0.184512
C41   C     C_R   0.526693 0.917857 0.969724 -0.180501
C42   C     C_R   0.510966 0.082141 0.062929 -0.183598
C43   C     C_R   0.473119 0.917836 0.030082 -0.180432
C44   C     C_R   0.488818 0.082170 0.936898 -0.183919
H9    H     H_    0.047997 0.402671 0.946590 0.162071
H10   H     H_    0.020316 0.597328 0.112547 0.157972
H11   H     H_    0.951808 0.402624 0.053211 0.162149
H12   H     H_    0.979413 0.597392 0.887229 0.156286
H13   H     H_    0.548144 0.902663 0.946765 0.162798
H14   H     H_    0.520188 0.097332 0.112494 0.158298
H15   H     H_    0.451702 0.902625 0.053074 0.162831
H16   H     H_    0.479627 0.097383 0.887361 0.156914
C45   C     C_R   0.999922 0.397461 0.999921 -0.003171
C46   C     C_R   0.999894 0.602543 0.999910 0.001688
C47   C     C_R   0.499939 0.897459 0.999937 -0.004084
C48   C     C_R   0.499927 0.102542 0.999942 0.001012
C49   C     C_R   0.999772 0.478670 0.999779 0.106556
C50   C     C_R   0.999763 0.521337 0.999789 0.112438
C51   C     C_R   0.499835 0.978668 0.999841 0.105404
C52   C     C_R   0.499831 0.021335 0.999853 0.112248
H17   H     H_    0.767025 0.106163 0.801156 0.172932
H18   H     H_    0.281600 0.876095 0.259011 0.175396
H19   H     H_    0.235978 0.109122 0.206226 0.169166
H20   H     H_    0.736828 0.874831 0.749807 0.172686
H21   H     H_    0.272828 0.603432 0.810889 0.174973
H22   H     H_    0.761554 0.377582 0.245306 0.172418
H23   H     H_    0.725909 0.605530 0.191942 0.170651
H24   H     H_    0.202613 0.371675 0.726601 0.175445
C53   C     C_R   0.787640 0.123661 0.909285 0.329844
C54   C     C_R   0.245075 0.868592 0.140947 0.313510
C55   C     C_R   0.216930 0.125453 0.098863 0.325369
C56   C     C_R   0.756286 0.868553 0.860218 0.304883
C57   C     C_R   0.292560 0.623256 0.916696 0.335665
C58   C     C_R   0.740524 0.369673 0.134422 0.308947
C59   C     C_R   0.710825 0.623348 0.087745 0.333055
C60   C     C_R   0.251126 0.364694 0.848610 0.314975
C61   C     C_R   0.784173 0.154102 0.949551 -0.226318
C62   C     C_R   0.236028 0.842496 0.085358 -0.233457
C63   C     C_R   0.219999 0.155363 0.057416 -0.222883
C64   C     C_R   0.759781 0.842622 0.912621 -0.245468
C65   C     C_R   0.287569 0.654253 0.954588 -0.227516
C66   C     C_R   0.737338 0.343062 0.083173 -0.242508
C67   C     C_R   0.716404 0.653734 0.049204 -0.230045
C68   C     C_R   0.264647 0.339158 0.907307 -0.214190
H25   H     H_    0.804009 0.150514 0.009925 0.178837
H26   H     H_    0.215393 0.852333 0.027123 0.174066
H27   H     H_    0.200992 0.150933 0.997513 0.176885
H28   H     H_    0.774319 0.852787 0.968422 0.177842
H29   H     H_    0.307915 0.651823 0.015326 0.176649
H30   H     H_    0.721742 0.352417 0.026474 0.177604
H31   H     H_    0.698824 0.650116 0.989653 0.179511
H32   H     H_    0.291302 0.349147 0.966724 0.168060
C69   C     C_R   0.755171 0.189361 0.912358 0.007528
C70   C     C_R   0.254222 0.803638 0.104799 0.017784
C71   C     C_R   0.247489 0.191149 0.092741 0.007408
C72   C     C_R   0.745535 0.803309 0.893945 0.014970
C73   C     C_R   0.256397 0.688569 0.914594 0.004421
C74   C     C_R   0.753556 0.304127 0.104291 0.016469
C75   C     C_R   0.744231 0.689041 0.086808 0.002398
C76   C     C_R   0.242356 0.300869 0.889348 0.022809
C77   C     C_R   0.728842 0.194269 0.834129 -0.172834
C78   C     C_R   0.281622 0.790627 0.180052 -0.169481
C79   C     C_R   0.272677 0.197128 0.170316 -0.170699
C80   C     C_R   0.725876 0.789893 0.821548 -0.166786
C81   C     C_R   0.229645 0.692026 0.835996 -0.164613
C82   C     C_R   0.774601 0.291729 0.177815 -0.170982
C83   C     C_R   0.767262 0.694065 0.163840 -0.158318
C84   C     C_R   0.206421 0.287902 0.812455 -0.197465
H33   H     H_    0.706992 0.221710 0.805624 0.148732
H34   H     H_    0.296707 0.760634 0.195129 0.148418
H35   H     H_    0.293316 0.225030 0.197212 0.147896
H36   H     H_    0.714328 0.759480 0.807011 0.145739
H37   H     H_    0.206213 0.718844 0.805526 0.150675
H38   H     H_    0.787638 0.261594 0.194159 0.147523
H39   H     H_    0.787975 0.721669 0.192354 0.146964
H40   H     H_    0.187399 0.258616 0.798384 0.151546
C85   C     C_R   0.731133 0.164210 0.792460 0.500517
C86   C     C_R   0.291132 0.815742 0.236826 0.517662
C87   C     C_R   0.270517 0.167758 0.213358 0.511464
C88   C     C_R   0.720898 0.815072 0.767467 0.523326
C89   C     C_R   0.233817 0.661591 0.796429 0.508467
C90   C     C_R   0.779223 0.317586 0.230793 0.519949
C91   C     C_R   0.762118 0.664364 0.203939 0.515528
C92   C     C_R   0.192638 0.312457 0.752775 0.511693
C93   C     C_R   0.762053 0.129091 0.831178 -0.334951
C94   C     C_R   0.272975 0.855206 0.216597 -0.348557
C95   C     C_R   0.241253 0.131913 0.176284 -0.343634
C96   C     C_R   0.737885 0.854556 0.788382 -0.340196
C97   C     C_R   0.266374 0.627148 0.838077 -0.349691
C98   C     C_R   0.760499 0.356723 0.207552 -0.343678
C99   C     C_R   0.733011 0.628846 0.164610 -0.350892
C100  C     C_R   0.214921 0.351289 0.771504 -0.345456
C101  C     C_R   0.200355 0.722909 0.956746 -0.251094
C102  C     C_R   0.801470 0.275603 0.046725 -0.255793
C103  C     C_R   0.799327 0.722713 0.042632 -0.250643
C104  C     C_R   0.197896 0.274781 0.952138 -0.255667
C105  C     C_R   0.700629 0.222803 0.957315 -0.252302
C106  C     C_R   0.300626 0.776157 0.045031 -0.253534
C107  C     C_R   0.301300 0.224280 0.046440 -0.251822
C108  C     C_R   0.698544 0.775580 0.953271 -0.255570
H41   H     H_    0.162053 0.701765 0.922926 0.179458
H42   H     H_    0.840495 0.296172 0.081887 0.178986
H43   H     H_    0.837887 0.701774 0.076974 0.180355
H44   H     H_    0.157714 0.294346 0.914782 0.180718
H45   H     H_    0.662027 0.201897 0.922910 0.179497
H46   H     H_    0.339550 0.796814 0.079992 0.180744
H47   H     H_    0.340852 0.204178 0.082710 0.180326
H48   H     H_    0.659460 0.796102 0.917991 0.178560
C109  C     C_R   0.197367 0.750333 0.002091 -0.067816
C110  C     C_R   0.803908 0.248613 0.000382 -0.065000
C111  C     C_R   0.802035 0.749914 0.996736 -0.067838
C112  C     C_R   0.196575 0.248818 0.000605 -0.066100
C113  C     C_R   0.697853 0.250043 0.003057 -0.066884
C114  C     C_R   0.303582 0.748802 0.999712 -0.065960
C115  C     C_R   0.302714 0.250405 0.998035 -0.067520
C116  C     C_R   0.696177 0.748652 0.999767 -0.064617
C117  C     C_R   0.249087 0.776735 0.048275 0.042874
C118  C     C_R   0.753343 0.221309 0.956356 0.045372
C119  C     C_R   0.749910 0.776024 0.949670 0.046084
C120  C     C_R   0.248445 0.222578 0.047148 0.044994
C121  C     C_R   0.749871 0.276235 0.049889 0.045554
C122  C     C_R   0.253355 0.721237 0.956318 0.045563
C123  C     C_R   0.249419 0.275397 0.948876 0.043444
C124  C     C_R   0.746643 0.721255 0.043663 0.045148
C125  C     C_R   0.844166 0.257951 0.586328 0.465655
C126  C     C_R   0.201194 0.714250 0.415801 0.471631
C127  C     C_R   0.156746 0.255315 0.414074 0.480769
C128  C     C_R   0.810677 0.716952 0.583848 0.482518
C129  C     C_R   0.336074 0.763888 0.584265 0.480363
C130  C     C_R   0.702455 0.211538 0.414644 0.462927
C131  C     C_R   0.662269 0.756676 0.415909 0.481683
C132  C     C_R   0.303419 0.214304 0.583996 0.483739
C133  C     C_R   0.880179 0.261214 0.667057 -0.295042
C134  C     C_R   0.158949 0.715025 0.334755 -0.288524
C135  C     C_R   0.119071 0.257495 0.332858 -0.299466
C136  C     C_R   0.851595 0.717688 0.664810 -0.278450
C137  C     C_R   0.374950 0.764980 0.665216 -0.272283
C138  C     C_R   0.657870 0.213757 0.333890 -0.279677
C139  C     C_R   0.622192 0.757567 0.334887 -0.290265
C140  C     C_R   0.346810 0.215858 0.664837 -0.266532
H49   H     H_    0.928381 0.273380 0.700224 0.171479
H50   H     H_    0.136024 0.688354 0.303206 0.164354
H51   H     H_    0.068475 0.265033 0.299158 0.164041
H52   H     H_    0.881764 0.692705 0.696208 0.171327
H53   H     H_    0.422923 0.777276 0.697022 0.168555
H54   H     H_    0.630020 0.188235 0.301609 0.172223
H55   H     H_    0.571103 0.763332 0.303494 0.168664
H56   H     H_    0.376518 0.190735 0.696356 0.170554
C141  C     C_R   0.854998 0.248148 0.704942 -0.065170
C142  C     C_R   0.148078 0.749700 0.294806 -0.039840
C143  C     C_R   0.145949 0.248958 0.294823 -0.060648
C144  C     C_R   0.852368 0.749906 0.704820 -0.065818
C145  C     C_R   0.352691 0.749589 0.704841 -0.074242
C146  C     C_R   0.650654 0.248228 0.295041 -0.056307
C147  C     C_R   0.647551 0.749742 0.294824 -0.069043
C148  C     C_R   0.350469 0.249046 0.704720 -0.059515
C149  C     C_R   0.792380 0.232976 0.661581 -0.218271
C150  C     C_R   0.178307 0.783930 0.336058 -0.227561
C151  C     C_R   0.211393 0.239489 0.337859 -0.222294
C152  C     C_R   0.812945 0.781922 0.663293 -0.185943
C153  C     C_R   0.290432 0.733835 0.662950 -0.231333
C154  C     C_R   0.687844 0.280760 0.337459 -0.180548
C155  C     C_R   0.713441 0.741674 0.335994 -0.222009
C156  C     C_R   0.311103 0.281083 0.663054 -0.228605
H57   H     H_    0.772013 0.222964 0.689837 0.213242
H58   H     H_    0.169786 0.810980 0.305776 0.156594
H59   H     H_    0.232881 0.233229 0.309150 0.210564
H60   H     H_    0.813479 0.807230 0.693250 0.176594
H61   H     H_    0.272252 0.722056 0.692570 0.212935
H62   H     H_    0.682814 0.307618 0.308310 0.164732
H63   H     H_    0.733691 0.735874 0.305676 0.207325
H64   H     H_    0.313758 0.307055 0.692942 0.161668
C157  C     C_R   0.754694 0.231890 0.581002 -0.192030
C158  C     C_R   0.218456 0.783656 0.416816 -0.212798
C159  C     C_R   0.250019 0.239271 0.418500 -0.209516
C160  C     C_R   0.773482 0.781850 0.582558 -0.206543
C161  C     C_R   0.250526 0.733977 0.582206 -0.186065
C162  C     C_R   0.730411 0.279247 0.418130 -0.190515
C163  C     C_R   0.753978 0.741972 0.416737 -0.194219
C164  C     C_R   0.269247 0.280247 0.582296 -0.200822
H65   H     H_    0.705353 0.221636 0.548319 0.186485
H66   H     H_    0.240361 0.810556 0.447940 0.175190
H67   H     H_    0.301050 0.232938 0.451092 0.186554
H68   H     H_    0.744185 0.807129 0.551280 0.167630
H69   H     H_    0.202003 0.722465 0.550687 0.186168
H70   H     H_    0.756660 0.305203 0.450072 0.168222
H71   H     H_    0.805066 0.736410 0.447786 0.187769
H72   H     H_    0.240526 0.305692 0.550937 0.172845
C165  C     C_R   0.779889 0.244627 0.542771 0.026085
C166  C     C_R   0.230129 0.748951 0.457141 0.032831
C167  C     C_R   0.223237 0.247404 0.456966 0.021632
C168  C     C_R   0.771922 0.749468 0.542353 0.023311
C169  C     C_R   0.272869 0.749101 0.542390 0.023248
C170  C     C_R   0.737815 0.244854 0.457362 0.028296
C171  C     C_R   0.728805 0.749601 0.457128 0.018686
C172  C     C_R   0.265370 0.247102 0.542242 0.029194
C173  C     C_R   0.053669 0.041365 0.060735 0.507647
C174  C     C_R   0.949524 0.957656 0.993800 0.515458
C175  C     C_R   0.945461 0.041703 0.936278 0.511442
C176  C     C_R   0.047079 0.957861 0.001056 0.514802
C177  C     C_R   0.553350 0.541196 0.061996 0.503139
C178  C     C_R   0.453127 0.457860 0.999306 0.510516
C179  C     C_R   0.446417 0.541380 0.936225 0.508158
C180  C     C_R   0.546461 0.457792 0.998316 0.510737
C181  C     C_R   0.054280 0.081774 0.059246 -0.248050
C182  C     C_R   0.949429 0.917273 0.991577 -0.271020
C183  C     C_R   0.945336 0.082239 0.939052 -0.277836
C184  C     C_R   0.048825 0.917539 0.005440 -0.258930
C185  C     C_R   0.553786 0.581791 0.060730 -0.281248
C186  C     C_R   0.452454 0.417471 0.997152 -0.278602
C187  C     C_R   0.446157 0.581967 0.938087 -0.277920
C188  C     C_R   0.547550 0.417403 0.001566 -0.278684
H73   H     H_    0.097316 0.097019 0.105545 0.182788
H74   H     H_    0.910837 0.901478 0.985952 0.200798
H75   H     H_    0.902907 0.098022 0.893158 0.176717
H76   H     H_    0.086960 0.901977 0.009668 0.204429
H77   H     H_    0.595981 0.597298 0.107728 0.170010
H78   H     H_    0.416059 0.401819 0.996403 0.207939
H79   H     H_    0.404028 0.597607 0.891282 0.169833
H80   H     H_    0.584142 0.401709 0.002740 0.203648
C189  C     C_R   0.999830 0.102346 0.999686 -0.143048
C190  C     C_R   0.999736 0.897252 0.999649 -0.183309
C191  C     C_R   0.499984 0.602255 0.999607 -0.122103
C192  C     C_R   0.500077 0.397267 0.999624 -0.181139
O53   O     O_3   0.109901 0.022121 0.118030 -0.542284
C193  C     C_3   0.107817 0.010635 0.179049 0.130490
H81   H     H_    0.143700 0.986954 0.211041 0.201550
H82   H     H_    0.060446 0.998103 0.157887 0.085940
C194  C     C_3   0.126514 0.044192 0.235595 -0.403489
H83   H     H_    0.171758 0.057890 0.251726 0.247543
H84   H     H_    0.087600 0.066369 0.207231 0.209139
C195  C     C_3   0.136827 0.030147 0.309112 -0.936445
H85   H     H_    0.092778 0.015399 0.294312 0.263417
H86   H     H_    0.147332 0.055303 0.347078 0.259867
H87   H     H_    0.178279 0.009732 0.341445 0.270333
O54   O     O_3   0.897489 0.975850 0.983750 -0.523958
C196  C     C_3   0.914787 0.990934 0.054813 0.225830
H88   H     H_    0.872017 0.006846 0.041246 0.245535
H89   H     H_    0.954002 0.012715 0.079938 0.097315
C197  C     C_3   0.931790 0.959118 0.114260 -0.469324
H90   H     H_    0.893288 0.936687 0.086498 0.273612
H91   H     H_    0.978160 0.945072 0.135201 0.201493
C198  C     C_3   0.938753 0.975929 0.184079 -0.905546
H92   H     H_    0.976424 0.998841 0.212152 0.259236
H93   H     H_    0.953022 0.952615 0.227090 0.265950
H94   H     H_    0.892140 0.988510 0.165651 0.279505
O55   O     O_3   0.892383 0.021700 0.874935 -0.550248
C199  C     C_3   0.883310 0.030401 0.805226 0.069123
H95   H     H_    0.929200 0.026844 0.812379 0.103590
H96   H     H_    0.865079 0.060538 0.786183 0.131270
C200  C     C_3   0.833034 0.002665 0.741882 -0.240389
H97   H     H_    0.849985 0.972283 0.760021 0.230989
H98   H     H_    0.786796 0.006108 0.733632 0.253265
C201  C     C_3   0.821327 0.010644 0.665003 -1.016748
H99   H     H_    0.804491 0.040923 0.645948 0.270176
H100  H     H_    0.783729 0.990577 0.619796 0.275313
H101  H     H_    0.866488 0.006077 0.671276 0.267225
O56   O     O_3   0.094228 0.976519 0.001315 -0.525970
C202  C     C_3   0.067255 0.990400 0.925846 0.115694
H102  H     H_    0.048913 0.020332 0.919678 0.158251
H103  H     H_    0.026939 0.971851 0.878848 0.085280
C203  C     C_3   0.119847 0.991531 0.914885 -0.205599
H104  H     H_    0.162012 0.008250 0.962972 0.293982
H105  H     H_    0.136016 0.961485 0.916500 0.229503
C204  C     C_3   0.095204 0.010182 0.837543 -0.979029
H106  H     H_    0.053604 0.993530 0.788546 0.254947
H107  H     H_    0.134364 0.010364 0.831155 0.274403
H108  H     H_    0.079953 0.040568 0.835198 0.288434
O57   O     O_3   0.606642 0.520628 0.121523 -0.532626
C205  C     C_3   0.616947 0.527854 0.192419 0.087650
H109  H     H_    0.571123 0.526706 0.185958 0.093191
H110  H     H_    0.639407 0.556849 0.215143 0.111388
C206  C     C_3   0.663464 0.497491 0.252226 -0.306829
H111  H     H_    0.708956 0.497756 0.258202 0.254501
H112  H     H_    0.675514 0.505051 0.309515 0.158472
C207  C     C_3   0.634233 0.456816 0.229385 -0.759251
H113  H     H_    0.589840 0.455724 0.225649 0.212939
H114  H     H_    0.669622 0.435660 0.273919 0.229260
H115  H     H_    0.622112 0.448275 0.172544 0.306807
O58   O     O_3   0.406357 0.476743 0.999360 -0.526979
C208  C     C_3   0.432910 0.488390 0.075916 0.117111
H116  H     H_    0.453834 0.517896 0.086194 0.159382
H117  H     H_    0.471188 0.468258 0.121115 0.081129
C209  C     C_3   0.379186 0.489697 0.084925 -0.208373
H118  H     H_    0.339276 0.508555 0.039249 0.291571
H119  H     H_    0.359664 0.459996 0.077617 0.227043
C210  C     C_3   0.404046 0.505188 0.164587 -0.978494
H120  H     H_    0.443170 0.486265 0.211181 0.253830
H121  H     H_    0.363974 0.505704 0.169347 0.273075
H122  H     H_    0.422834 0.535153 0.172672 0.289825
O59   O     O_3   0.393077 0.520974 0.876354 -0.534475
C211  C     C_3   0.382568 0.528670 0.805470 0.077050
H123  H     H_    0.428356 0.527992 0.811792 0.093993
H124  H     H_    0.359642 0.557593 0.783049 0.112375
C212  C     C_3   0.336397 0.498286 0.745410 -0.304231
H125  H     H_    0.291196 0.497892 0.740077 0.258080
H126  H     H_    0.323691 0.506323 0.687990 0.158044
C213  C     C_3   0.366391 0.457808 0.767303 -0.741390
H127  H     H_    0.409924 0.457232 0.769220 0.208402
H128  H     H_    0.330879 0.436572 0.723145 0.236934
H129  H     H_    0.380010 0.448974 0.824748 0.305310
O60   O     O_3   0.592977 0.476508 0.997446 -0.525177
C214  C     C_3   0.564980 0.490471 0.921762 0.114368
H130  H     H_    0.547884 0.520653 0.916680 0.161055
H131  H     H_    0.523612 0.472385 0.875179 0.080624
C215  C     C_3   0.616145 0.490660 0.908388 -0.202100
H132  H     H_    0.659267 0.507077 0.955670 0.294338
H133  H     H_    0.631153 0.460368 0.909386 0.229103
C216  C     C_3   0.590269 0.509023 0.830395 -0.976917
H134  H     H_    0.547841 0.492532 0.782182 0.252669
H135  H     H_    0.628455 0.508629 0.822333 0.274340
H136  H     H_    0.575856 0.539584 0.828388 0.291079
N1    N     N_R   0.817050 0.087399 0.947550 0.202454
O61   O     O_R   0.852350 0.084718 0.022824 -0.451108
O62   O     O_R   0.806950 0.056443 0.907254 -0.346511
N2    N     N_R   0.227467 0.908751 0.121218 0.221222
O63   O     O_R   0.227696 0.932021 0.168647 -0.364595
O64   O     O_R   0.211420 0.922493 0.055745 -0.409382
N3    N     N_R   0.188984 0.088670 0.062335 0.206392
O65   O     O_R   0.152199 0.085413 0.987067 -0.444153
O66   O     O_R   0.201927 0.057856 0.104135 -0.330982
N4    N     N_R   0.771148 0.908989 0.879738 0.220931
O67   O     O_R   0.774196 0.932477 0.835051 -0.361467
O68   O     O_R   0.780627 0.922860 0.941736 -0.401010
N5    N     N_R   0.324403 0.587979 0.958004 0.201018
O69   O     O_R   0.361401 0.587151 0.033543 -0.451348
O70   O     O_R   0.315336 0.556143 0.920369 -0.348641
N6    N     N_R   0.723950 0.409764 0.112483 0.220905
O71   O     O_R   0.722711 0.434127 0.157404 -0.365896
O72   O     O_R   0.711228 0.422472 0.048004 -0.412450
N7    N     N_R   0.682018 0.587151 0.048596 0.204685
O73   O     O_R   0.648122 0.584790 0.973429 -0.448805
O74   O     O_R   0.690737 0.556040 0.087888 -0.339037
N8    N     N_R   0.271741 0.404511 0.866679 0.220733
O75   O     O_R   0.267530 0.426918 0.815467 -0.385442
O76   O     O_R   0.292772 0.419101 0.933615 -0.405823
O77   O     O_3   0.708161 0.171897 0.716692 -0.663033
C217  C     C_3   0.672385 0.140662 0.665382 0.074884
H137  H     H_    0.625812 0.152554 0.614287 0.165593
H138  H     H_    0.659187 0.117666 0.689692 0.134746
C218  C     C_3   0.708838 0.123429 0.637020 -0.351060
H139  H     H_    0.714307 0.146028 0.604836 0.239716
H140  H     H_    0.757892 0.114027 0.687239 0.214143
C219  C     C_3   0.672848 0.088759 0.583725 -0.941651
H141  H     H_    0.668490 0.065376 0.615540 0.272740
H142  H     H_    0.699844 0.077218 0.563254 0.259910
H143  H     H_    0.623884 0.097582 0.532377 0.269428
O78   O     O_3   0.322248 0.799885 0.310853 -0.658923
C220  C     C_3   0.318312 0.822118 0.362584 0.095177
H144  H     H_    0.317722 0.801387 0.401214 0.206380
H145  H     H_    0.272530 0.838771 0.333603 0.122703
C221  C     C_3   0.378548 0.847561 0.413687 -0.364357
H146  H     H_    0.422133 0.828746 0.446323 0.232687
H147  H     H_    0.383228 0.867610 0.377312 0.225784
C222  C     C_3   0.375986 0.871204 0.471212 -0.935280
H148  H     H_    0.333358 0.890770 0.439680 0.265770
H149  H     H_    0.420389 0.889083 0.507692 0.263828
H150  H     H_    0.373051 0.851716 0.509737 0.296307
O79   O     O_3   0.292757 0.177284 0.288383 -0.665468
C223  C     C_3   0.316220 0.145398 0.339989 0.078905
H151  H     H_    0.360436 0.155241 0.396755 0.170193
H152  H     H_    0.332069 0.120380 0.322790 0.133952
C224  C     C_3   0.266476 0.133490 0.352457 -0.347029
H153  H     H_    0.258471 0.158139 0.378625 0.245614
H154  H     H_    0.219498 0.126524 0.296096 0.212615
C225  C     C_3   0.289512 0.098485 0.406224 -0.943863
H155  H     H_    0.296277 0.073103 0.380302 0.271541
H156  H     H_    0.252902 0.090985 0.414906 0.266007
H157  H     H_    0.335805 0.105176 0.463666 0.273930
O80   O     O_3   0.702599 0.798444 0.698030 -0.659507
C226  C     C_3   0.673140 0.824219 0.634117 0.062988
H158  H     H_    0.665033 0.807596 0.585080 0.206470
H159  H     H_    0.705654 0.848241 0.643980 0.126431
C227  C     C_3   0.606892 0.838548 0.608232 -0.394339
H160  H     H_    0.576257 0.813246 0.597801 0.231494
H161  H     H_    0.612392 0.856804 0.654078 0.225289
C228  C     C_3   0.572824 0.862300 0.533692 -0.919989
H162  H     H_    0.602735 0.887749 0.542466 0.268605
H163  H     H_    0.525760 0.872851 0.517207 0.264148
H164  H     H_    0.563786 0.844186 0.485606 0.276021
O81   O     O_3   0.209334 0.668806 0.719655 -0.665240
C229  C     C_3   0.192533 0.635149 0.673703 0.088778
H165  H     H_    0.148874 0.642174 0.614180 0.168550
H166  H     H_    0.177862 0.610326 0.692745 0.136597
C230  C     C_3   0.246754 0.624479 0.668189 -0.349039
H167  H     H_    0.250757 0.647476 0.635434 0.234738
H168  H     H_    0.293856 0.622832 0.726925 0.214597
C231  C     C_3   0.233430 0.585718 0.627082 -0.992830
H169  H     H_    0.228700 0.562366 0.658614 0.269769
H170  H     H_    0.274148 0.578330 0.625646 0.257638
H171  H     H_    0.188286 0.587402 0.566543 0.276843
O82   O     O_3   0.799644 0.301907 0.301853 -0.654269
C232  C     C_3   0.825727 0.328916 0.363323 0.077308
H172  H     H_    0.834916 0.312850 0.413511 0.205258
H173  H     H_    0.790479 0.351695 0.350715 0.124193
C233  C     C_3   0.890779 0.345509 0.388977 -0.399905
H174  H     H_    0.925251 0.321368 0.406104 0.224778
H175  H     H_    0.884840 0.361563 0.340644 0.229470
C234  C     C_3   0.919234 0.373050 0.457642 -0.935493
H176  H     H_    0.886070 0.397894 0.441212 0.270974
H177  H     H_    0.966248 0.384405 0.475240 0.268286
H178  H     H_    0.927288 0.357673 0.507862 0.267044
O83   O     O_3   0.782187 0.673402 0.278397 -0.664994
C235  C     C_3   0.795198 0.641003 0.325935 0.091994
H179  H     H_    0.835534 0.649195 0.386593 0.174227
H180  H     H_    0.813254 0.615323 0.313202 0.132163
C236  C     C_3   0.736405 0.631617 0.323404 -0.335615
H181  H     H_    0.727340 0.656207 0.348728 0.237950
H182  H     H_    0.692518 0.627840 0.262549 0.212950
C237  C     C_3   0.747494 0.594851 0.369133 -1.001005
H183  H     H_    0.755190 0.569690 0.343644 0.265829
H184  H     H_    0.704562 0.589026 0.367042 0.256535
H185  H     H_    0.790388 0.598324 0.430685 0.279633
O84   O     O_3   0.151475 0.297774 0.677480 -0.657166
C238  C     C_3   0.158969 0.314924 0.624145 0.091836
H186  H     H_    0.155939 0.291228 0.587401 0.208710
H187  H     H_    0.206954 0.328698 0.651700 0.121064
C239  C     C_3   0.103422 0.343218 0.571163 -0.364856
H188  H     H_    0.056711 0.327498 0.540439 0.227879
H189  H     H_    0.103037 0.366582 0.606068 0.227173
C240  C     C_3   0.109195 0.361430 0.511492 -0.950104
H190  H     H_    0.154793 0.378263 0.541191 0.265545
H191  H     H_    0.067849 0.381319 0.473332 0.266084
H192  H     H_    0.108625 0.338671 0.474874 0.292683
O85   O     O_3   0.870057 0.270085 0.549521 -0.666195
C241  C     C_3   0.919989 0.244418 0.568085 0.070057
H193  H     H_    0.899179 0.215716 0.540357 0.129599
H194  H     H_    0.956309 0.240255 0.631938 0.138957
C242  C     C_3   0.955112 0.261062 0.537680 -0.329147
H195  H     H_    0.921681 0.261754 0.473195 0.231581
H196  H     H_    0.970938 0.291170 0.559468 0.236817
C243  C     C_3   0.014393 0.236865 0.564485 -0.931011
H197  H     H_    0.048573 0.235781 0.628919 0.282384
H198  H     H_    0.039703 0.250214 0.543239 0.275322
H199  H     H_    0.999789 0.206907 0.541213 0.249445
O86   O     O_3   0.213370 0.679672 0.454717 -0.656215
C244  C     C_3   0.262853 0.659915 0.458889 0.075186
H200  H     H_    0.304818 0.679311 0.479916 0.119534
H201  H     H_    0.243811 0.648305 0.400627 0.142888
C245  C     C_3   0.286575 0.626228 0.515875 -0.316335
H202  H     H_    0.305373 0.637719 0.573999 0.227279
H203  H     H_    0.245567 0.606377 0.495825 0.234702
C246  C     C_3   0.340174 0.603577 0.522875 -0.980943
H204  H     H_    0.322326 0.591311 0.465640 0.268627
H205  H     H_    0.356213 0.579374 0.564708 0.264966
H206  H     H_    0.382197 0.622755 0.544300 0.264148
O87   O     O_3   0.130701 0.262967 0.452853 -0.680309
C247  C     C_3   0.075667 0.239681 0.424844 0.051535
H207  H     H_    0.084016 0.224487 0.475405 0.160098
H208  H     H_    0.066770 0.216384 0.383584 0.127981
C248  C     C_3   0.015774 0.265456 0.387823 -0.350565
H209  H     H_    0.022104 0.284936 0.432684 0.222376
H210  H     H_    0.009767 0.283912 0.341899 0.225100
C249  C     C_3   0.954644 0.241374 0.352159 -0.961657
H211  H     H_    0.945732 0.222980 0.304471 0.265536
H212  H     H_    0.912597 0.260937 0.327889 0.280522
H213  H     H_    0.959228 0.222575 0.396838 0.271871
O88   O     O_3   0.809392 0.684465 0.545596 -0.657542
C250  C     C_3   0.761630 0.658287 0.532063 0.061941
H214  H     H_    0.729446 0.651253 0.469119 0.168334
H215  H     H_    0.730020 0.669922 0.546454 0.121131
C251  C     C_3   0.794000 0.621079 0.578383 -0.326486
H216  H     H_    0.825602 0.609213 0.564600 0.230796
H217  H     H_    0.824541 0.627726 0.641485 0.212994
C252  C     C_3   0.744009 0.590567 0.559741 -0.964581
H218  H     H_    0.712636 0.601590 0.574515 0.264089
H219  H     H_    0.768989 0.563990 0.594326 0.269127
H220  H     H_    0.713599 0.582922 0.497106 0.262881
O89   O     O_3   0.359594 0.777783 0.546006 -0.680426
C253  C     C_3   0.400560 0.749793 0.548359 0.058636
H221  H     H_    0.383038 0.744716 0.487803 0.168695
H222  H     H_    0.400634 0.720884 0.571836 0.119016
C254  C     C_3   0.469689 0.765372 0.595947 -0.333631
H223  H     H_    0.470070 0.793695 0.571827 0.229925
H224  H     H_    0.488427 0.769948 0.657034 0.216261
C255  C     C_3   0.514212 0.737158 0.594942 -0.981302
H225  H     H_    0.513529 0.708348 0.617350 0.269421
H226  H     H_    0.564504 0.748319 0.632544 0.274850
H227  H     H_    0.498552 0.733904 0.534795 0.274180
O90   O     O_3   0.709163 0.177126 0.451587 -0.658469
C256  C     C_3   0.760316 0.155835 0.462351 0.082126
H228  H     H_    0.805907 0.173036 0.495539 0.127554
H229  H     H_    0.747930 0.147418 0.405093 0.140978
C257  C     C_3   0.771555 0.119114 0.508451 -0.320064
H230  H     H_    0.783678 0.127234 0.565534 0.224968
H231  H     H_    0.726647 0.101453 0.476071 0.230653
C258  C     C_3   0.826615 0.094877 0.522167 -0.977517
H232  H     H_    0.815271 0.085916 0.465880 0.268783
H233  H     H_    0.833403 0.068441 0.555627 0.271300
H234  H     H_    0.872330 0.111753 0.555834 0.263072
O91   O     O_3   0.636380 0.762317 0.455057 -0.665431
C259  C     C_3   0.609342 0.727103 0.456789 0.047921
H235  H     H_    0.627668 0.700770 0.445656 0.114574
H236  H     H_    0.556081 0.728243 0.411529 0.160484
C260  C     C_3   0.624613 0.722691 0.536532 -0.307365
H237  H     H_    0.677717 0.724612 0.582415 0.240984
H238  H     H_    0.601303 0.746642 0.545503 0.236250
C261  C     C_3   0.600667 0.683911 0.544061 -0.982768
H239  H     H_    0.547600 0.681311 0.498929 0.267543
H240  H     H_    0.611817 0.681898 0.602192 0.278738
H241  H     H_    0.625043 0.659550 0.537756 0.259634
O92   O     O_3   0.300475 0.181010 0.546386 -0.660347
C262  C     C_3   0.244159 0.159574 0.520061 0.073439
H242  H     H_    0.218785 0.152639 0.457767 0.164356
H243  H     H_    0.208551 0.175351 0.523665 0.120881
C263  C     C_3   0.263544 0.121749 0.565961 -0.337893
H244  H     H_    0.298051 0.105641 0.561398 0.235925
H245  H     H_    0.287941 0.128477 0.628176 0.216136
C264  C     C_3   0.204813 0.096204 0.535606 -0.963579
H246  H     H_    0.170216 0.111452 0.541088 0.264645
H247  H     H_    0.220509 0.068990 0.569970 0.270916
H248  H     H_    0.180234 0.088672 0.473725 0.259194

loop_
_geom_bond_atom_site_label_1
_geom_bond_atom_site_label_2
_geom_bond_distance
_ccdc_geom_bond_type
C125  C165  1.409512 A    
C248  H209  1.108952 S    
C250  H215  1.117867 S    
Zn7   O9    1.943957 S    
O33   C27   1.284521 A    
C244  H200  1.116030 S    
Zn6   O12   1.943942 S    
C3    C4    1.471195 S    
C150  H58   1.083179 S    
O19   C19   1.282172 A    
C223  H152  1.114209 S    
C131  C171  1.407798 A    
C254  H223  1.110829 S    
C240  H192  1.110177 S    
C132  C172  1.411065 A    
C143  C151  1.397247 A    
O23   C21   1.278777 A    
C33   C51   1.404020 A    
C77   C85   1.400113 A    
C70   C78   1.399016 A    
C210  H121  1.110310 S    
C264  H246  1.110896 S    
C208  H117  1.117756 S    
C241  H193  1.113200 S    
C253  C254  1.529741 S    
C129  C169  1.407243 A    
C30   C38   1.390481 A    
C87   C95   1.418147 A    
O92   C262  1.417217 S    
C249  H212  1.110034 S    
C165  C170  1.471001 S    
C242  C243  1.526433 S    
C181  H73   1.083440 S    
C62   C70   1.398373 A    
C261  H241  1.110780 S    
O84   C238  1.414083 S    
C218  H139  1.111514 S    
C263  H244  1.111546 S    
C106  H46   1.084804 S    
C213  H129  1.110311 S    
C89   C97   1.419487 A    
C66   C74   1.398546 A    
C238  H186  1.110184 S    
C247  H208  1.116999 S    
O78   C220  1.413044 S    
Zn16  O52   1.949341 S    
Zn2   O2    1.951318 S    
C126  O86   1.381674 S    
C88   C96   1.418458 A    
C55   C63   1.401815 A    
C80   C88   1.400243 A    
C247  C248  1.532418 S    
C29   H1    1.082814 S    
C249  H213  1.110077 S    
C130  C170  1.410716 A    
C92   C100  1.417423 A    
C213  H128  1.110313 S    
C38   C46   1.401805 A    
C149  C157  1.390312 A    
C31   H3    1.082817 S    
O7    C7    1.282230 A    
C196  H89   1.108629 S    
C245  H203  1.111441 S    
C158  C166  1.402137 A    
O87   C247  1.418618 S    
C15   C141  1.462629 S    
C214  C215  1.527255 S    
C125  C133  1.400282 A    
O90   C256  1.411731 S    
C180  O60   1.383688 S    
C253  H221  1.111075 S    
C232  H173  1.109349 S    
C193  H81   1.110979 S    
C79   C87   1.401302 A    
C104  H44   1.084918 S    
C125  O85   1.386323 S    
C10   C115  1.462481 S    
C129  C137  1.395463 A    
C197  C198  1.525482 S    
C61   H25   1.083333 S    
C205  H110  1.111252 S    
N7    O74   1.301179 A    
O88   C250  1.416641 S    
C220  H145  1.112289 S    
C258  H233  1.110246 S    
Zn4   O6    1.943952 S    
C54   C62   1.404688 A    
O54   C196  1.415601 S    
C131  O91   1.381975 S    
C229  H165  1.110949 S    
C226  H159  1.109030 S    
O89   C253  1.417134 S    
C194  C195  1.525399 S    
Zn1   O31   1.930981 S    
Zn15  O19   1.930926 S    
C160  C168  1.402115 A    
Zn2   O32   1.930980 S    
Zn16  O20   1.930930 S    
O35   C27   1.284514 A    
N2    O63   1.301673 A    
C260  H238  1.110387 S    
C219  H142  1.109141 S    
C225  H156  1.109578 S    
C140  H56   1.083511 S    
C91   O83   1.396751 S    
C206  H111  1.111758 S    
C218  C219  1.525661 S    
C106  C117  1.387289 A    
C227  H160  1.109356 S    
Zn7   O33   1.931102 S    
C113  C121  1.418464 A    
C135  C143  1.399933 A    
C258  H232  1.110806 S    
C105  C113  1.399612 A    
C231  H169  1.110632 S    
C136  H52   1.083215 S    
C75   C83   1.400543 A    
C254  C255  1.524706 S    
C137  H53   1.082033 S    
C76   C84   1.399687 A    
C106  C114  1.397776 A    
O26   C24   1.276956 A    
C21   C189  1.463994 S    
C53   N1    1.437600 S    
C193  C194  1.534312 S    
C202  H102  1.110982 S    
C225  H157  1.110804 S    
Zn9   O21   1.930035 S    
C30   H2    1.082803 S    
C101  H41   1.084601 S    
O20   C20   1.281474 A    
O38   C14   1.280535 A    
C109  C117  1.417199 A    
Zn12  O24   1.929975 S    
Zn13  O25   1.930035 S    
H18   C94   1.078961 S    
Zn9   O1    1.940368 S    
C129  O89   1.382581 S    
C243  H198  1.108436 S    
C195  H85   1.109949 S    
C67   H31   1.083395 S    
C200  C201  1.526162 S    
C193  H82   1.110472 S    
C68   H32   1.083207 S    
O80   C226  1.416544 S    
Zn9   O45   1.949294 S    
C231  H170  1.110112 S    
C104  C123  1.387173 A    
N5    O70   1.301162 A    
C78   H34   1.084000 S    
C76   C123  1.477296 S    
C40   C46   1.401889 A    
C257  H230  1.111272 S    
C176  C184  1.392667 A    
C235  H180  1.113591 S    
C248  C249  1.526044 S    
C198  H92   1.110205 S    
C108  C119  1.387708 A    
C239  H188  1.110934 S    
H19   C95   1.080061 S    
C82   H38   1.083842 S    
O29   C25   1.284536 A    
C203  H104  1.111216 S    
C157  C165  1.404568 A    
C75   C124  1.477995 S    
C59   C67   1.401831 A    
C264  H247  1.110290 S    
C182  H74   1.083591 S    
C251  H217  1.111110 S    
Zn3   O1    1.951075 S    
C186  H78   1.082900 S    
O49   C9    1.272496 A    
O91   C259  1.415968 S    
C29   C49   1.404005 A    
C234  H178  1.110397 S    
C81   C89   1.401131 A    
C220  C221  1.532424 S    
O51   C11   1.272060 A    
C201  H99   1.110519 S    
C85   C93   1.413725 A    
N5    O69   1.301419 A    
C256  H228  1.114655 S    
O42   C18   1.282080 A    
C26   C46   1.461801 S    
C253  H222  1.118830 S    
O18   C18   1.282455 A    
C2    C176  1.416419 A    
C238  H187  1.112923 S    
C222  H149  1.110266 S    
C236  C237  1.525040 S    
C155  C163  1.390428 A    
C251  C252  1.525865 S    
O46   C6    1.271359 A    
C233  C234  1.525476 S    
Zn12  O2    1.940484 S    
C199  H95   1.115447 S    
C178  C186  1.393453 A    
C167  C172  1.468665 S    
C133  C141  1.401302 A    
C22   C190  1.455013 S    
C174  O54   1.386129 S    
O56   C202  1.415167 S    
C132  O92   1.383287 S    
C174  C182  1.393491 A    
C58   C66   1.404300 A    
C246  H204  1.110817 S    
C84   C92   1.398360 A    
C239  C240  1.525609 S    
C204  H108  1.110940 S    
C43   C47   1.401861 A    
C219  H143  1.110773 S    
C217  H137  1.111078 S    
C86   O78   1.396697 S    
C231  H171  1.110705 S    
C180  C188  1.394099 A    
C148  C156  1.401012 A    
C230  H167  1.110944 S    
C102  C110  1.399280 A    
C71   C79   1.400245 A    
C252  H218  1.110921 S    
C105  H45   1.084643 S    
C69   C77   1.400673 A    
C32   C50   1.404013 A    
C242  H195  1.110873 S    
C246  H206  1.111054 S    
Zn10  O46   1.949294 S    
C4    C178  1.412849 A    
C70   C117  1.477083 S    
C212  H126  1.111462 S    
C32   H4    1.082810 S    
C127  C135  1.403297 A    
C16   C142  1.457732 S    
C243  H199  1.110669 S    
C58   C98   1.407560 A    
Zn10  O14   1.931022 S    
C74   C121  1.479370 S    
C65   H29   1.083383 S    
C36   H8    1.082810 S    
O30   C26   1.284537 A    
C107  H47   1.084593 S    
C152  H60   1.083089 S    
C63   H27   1.083417 S    
C153  H61   1.082518 S    
C64   C72   1.399058 A    
C195  H87   1.110761 S    
N6    O71   1.301585 A    
O22   C22   1.276095 A    
C155  H63   1.082781 S    
C252  H220  1.110819 S    
C261  H240  1.110268 S    
N8    O76   1.301266 A    
O85   C241  1.415120 S    
C185  C191  1.400695 A    
Zn1   O37   1.925353 S    
C182  C190  1.395611 A    
Zn4   O2    1.951076 S    
Zn5   O3    1.951315 S    
C257  C258  1.525751 S    
C263  C264  1.525778 S    
Zn6   O4    1.951318 S    
C259  H235  1.118656 S    
Zn4   O40   1.925439 S    
C217  C218  1.531135 S    
C197  H91   1.111075 S    
C1    C2    1.472604 S    
C145  C153  1.400710 A    
C219  H141  1.110910 S    
C176  O56   1.384102 S    
C150  C158  1.390762 A    
Zn7   O43   1.925435 S    
C188  C192  1.396981 A    
O31   C25   1.284520 A    
C141  C149  1.398745 A    
Zn8   O44   1.925439 S    
C215  H132  1.111081 S    
C237  H184  1.110325 S    
O47   C7    1.272701 A    
C161  H69   1.083361 S    
C234  H176  1.110805 S    
C56   C96   1.407622 A    
C163  H71   1.083274 S    
C202  C203  1.527352 S    
C177  C185  1.400466 A    
C164  H72   1.083530 S    
C128  O88   1.382307 S    
C36   C52   1.403999 A    
C241  C242  1.528235 S    
C8    C109  1.462909 S    
C2    C174  1.417770 A    
C107  C120  1.388211 A    
C3    C179  1.406753 A    
C209  H118  1.110664 S    
C236  H181  1.110972 S    
C168  C171  1.467550 S    
O48   C8    1.272006 A    
C103  H43   1.084591 S    
C110  C118  1.416291 A    
C199  C200  1.526858 S    
C59   C99   1.405954 A    
C33   C41   1.390522 A    
C59   N7    1.438112 S    
O52   C12   1.271311 A    
C208  H116  1.111220 S    
C241  H194  1.113818 S    
Zn13  O49   1.949294 S    
Zn7   O3    1.951075 S    
C147  C155  1.400087 A    
Zn8   O4    1.951076 S    
C173  O53   1.385176 S    
C198  H94   1.110814 S    
O5    C5    1.283317 A    
C41   C47   1.401852 A    
H21   C97   1.079576 S    
C154  C162  1.390858 A    
C42   C48   1.401829 A    
C250  H214  1.110761 S    
C37   H9    1.083231 S    
C221  H146  1.111379 S    
C138  H54   1.083582 S    
C215  C216  1.526189 S    
O28   C24   1.276386 A    
C230  C231  1.525133 S    
C226  H158  1.109445 S    
C13   C143  1.458813 S    
C103  C124  1.387748 A    
C14   C144  1.461938 S    
O14   C14   1.283246 A    
N3    O66   1.301031 A    
C41   H13   1.083238 S    
O82   C232  1.416064 S    
C43   H15   1.083236 S    
C4    C180  1.414309 A    
Zn9   O13   1.931026 S    
Zn10  O22   1.930034 S    
C218  H140  1.110552 S    
O21   C21   1.279210 A    
C224  H153  1.109998 S    
C32   C40   1.390520 A    
C158  H66   1.083437 S    
C187  H79   1.082608 S    
C196  H88   1.109863 S    
C224  C225  1.525095 S    
O24   C22   1.277043 A    
C51   C52   1.471460 S    
Zn14  O26   1.930034 S    
Zn10  O2    1.940368 S    
C78   C86   1.398726 A    
C227  H161  1.109973 S    
C36   C44   1.390500 A    
C214  H131  1.117252 S    
O39   C15   1.280745 A    
C209  C210  1.526009 S    
C31   C39   1.390511 A    
C232  H172  1.109779 S    
C25   C45   1.461911 S    
C256  C257  1.527275 S    
C79   H35   1.083630 S    
C33   H5    1.082811 S    
C86   C94   1.419965 A    
C259  C260  1.527937 S    
C77   H33   1.083535 S    
C35   H7    1.082814 S    
C216  H135  1.110300 S    
N4    O67   1.301753 A    
O6    C6    1.283726 A    
C80   H36   1.083874 S    
C135  H51   1.081356 S    
C81   H37   1.083662 S    
C136  C144  1.402360 A    
H23   C99   1.079470 S    
C214  H130  1.111049 S    
C137  C145  1.400776 A    
C157  H65   1.083254 S    
C233  H175  1.109704 S    
C179  O59   1.385597 S    
C229  H166  1.114130 S    
O55   C199  1.412776 S    
C84   H40   1.084025 S    
C139  H55   1.083650 S    
C194  H84   1.110706 S    
C186  C192  1.395800 A    
C161  C169  1.402617 A    
C72   C80   1.401198 A    
N2    O64   1.301164 A    
C250  C251  1.528695 S    
C73   C81   1.400147 A    
C216  H134  1.110953 S    
C228  H162  1.110847 S    
C212  C213  1.527782 S    
C27   C47   1.461872 S    
C244  H201  1.113825 S    
C74   C82   1.400759 A    
C101  C109  1.400193 A    
O77   C217  1.416665 S    
C3    C177  1.406823 A    
C255  H227  1.110427 S    
C92   O84   1.394318 S    
C223  H151  1.111028 S    
C60   C100  1.407842 A    
C187  C191  1.400989 A    
C254  H224  1.109765 S    
C204  H107  1.110308 S    
C229  C230  1.533701 S    
C257  H231  1.111364 S    
C202  H103  1.118263 S    
N7    O73   1.301307 A    
C126  C134  1.396207 A    
C102  C121  1.387802 A    
C55   N3    1.437399 S    
Zn3   O5    1.943957 S    
C210  H122  1.110898 S    
C39   H11   1.083237 S    
O58   C208  1.414068 S    
C134  C142  1.400763 A    
C91   C99   1.420213 A    
C208  C209  1.527515 S    
C57   C97   1.405553 A    
O15   C15   1.283238 A    
C255  H225  1.110836 S    
C130  C138  1.396080 A    
C249  H211  1.110752 S    
N1    O61   1.301452 A    
C55   C95   1.405752 A    
Zn4   O30   1.931103 S    
C227  C228  1.525457 S    
C179  C187  1.400457 A    
C222  H148  1.110809 S    
C156  H64   1.082926 S    
C242  H196  1.111157 S    
Zn12  O48   1.949341 S    
C221  C222  1.525309 S    
C149  H57   1.082392 S    
C128  C168  1.408043 A    
C195  H86   1.109733 S    
C200  H98   1.111961 S    
H22   C98   1.077563 S    
C211  H124  1.111400 S    
C56   N4    1.440376 S    
C1    C175  1.409335 A    
C248  H210  1.109749 S    
C159  C167  1.403298 A    
C49   C50   1.471453 S    
C262  C263  1.528378 S    
C239  H189  1.109761 S    
C160  H68   1.083282 S    
C240  H191  1.110225 S    
C203  H105  1.111138 S    
C105  C118  1.387620 A    
O8    C8    1.283178 A    
C196  C197  1.538549 S    
C245  H202  1.111326 S    
C66   H30   1.083160 S    
C130  O90   1.382103 S    
O57   C205  1.412621 S    
C72   C119  1.480072 S    
O17   C17   1.281169 A    
O36   C28   1.284485 A    
C154  H62   1.083397 S    
C5    C112  1.462353 S    
O27   C23   1.279367 A    
C133  H49   1.083283 S    
C207  H113  1.110307 S    
C234  H177  1.110048 S    
C54   N2    1.439833 S    
C62   H26   1.083158 S    
C232  C233  1.537975 S    
C201  H100  1.110259 S    
Zn2   O38   1.925350 S    
Zn15  O51   1.949341 S    
Zn8   O10   1.943952 S    
C146  C154  1.400293 A    
C203  C204  1.526155 S    
H20   C96   1.077527 S    
C205  H109  1.115468 S    
C18   C148  1.463478 S    
C188  H80   1.083390 S    
C151  C159  1.389742 A    
C258  H234  1.110956 S    
C236  H182  1.109975 S    
C175  O55   1.386578 S    
C142  C150  1.399307 A    
C38   H10   1.083231 S    
C199  H96   1.112645 S    
C226  C227  1.537124 S    
O25   C23   1.279690 A    
C34   C52   1.404009 A    
C162  H70   1.083184 S    
C201  H101  1.110964 S    
C166  C169  1.467981 S    
C104  C112  1.396791 A    
C83   C91   1.401627 A    
C260  C261  1.525981 S    
C211  H123  1.115665 S    
C54   C94   1.408020 A    
C225  H155  1.110782 S    
C228  H164  1.111049 S    
C1    C173  1.414248 A    
C212  H125  1.111713 S    
C206  H112  1.111540 S    
C217  H138  1.115935 S    
C56   C64   1.404632 A    
C178  O58   1.382688 S    
C57   C65   1.401745 A    
O44   C20   1.282083 A    
C223  C224  1.532507 S    
C65   C73   1.398650 A    
H24   C100  1.079522 S    
C131  C139  1.395690 A    
C144  C152  1.400376 A    
C60   C68   1.405038 A    
Zn1   O1    1.951315 S    
O50   C10   1.271551 A    
C61   C69   1.399744 A    
C262  H243  1.118794 S    
C185  H77   1.082546 S    
C210  H120  1.110916 S    
C82   C90   1.400456 A    
Zn15  O27   1.929975 S    
C12   C113  1.463134 S    
Zn16  O28   1.929975 S    
C255  H226  1.110056 S    
C108  H48   1.084680 S    
Zn3   O29   1.931102 S    
O83   C235  1.414492 S    
C246  H205  1.110491 S    
C139  C147  1.400774 A    
O53   C193  1.413335 S    
Zn6   O36   1.930980 S    
C140  C148  1.402473 A    
Zn13  O3    1.940368 S    
C37   C45   1.401867 A    
C107  C115  1.400510 A    
C23   C191  1.466066 S    
C243  H197  1.110933 S    
C88   O80   1.396595 S    
C204  H106  1.110933 S    
O12   C12   1.283906 A    
Zn14  O4    1.940368 S    
C115  C123  1.417335 A    
O45   C5    1.271169 A    
C31   C49   1.404000 A    
N6    O72   1.301162 A    
O81   C229  1.414846 S    
C252  H219  1.110295 S    
C35   C51   1.403998 A    
C156  C164  1.391160 A    
Zn11  O15   1.930926 S    
C163  C171  1.401808 A    
C29   C37   1.390529 A    
C235  H179  1.111044 S    
C164  C172  1.401683 A    
C259  H236  1.111721 S    
O59   C211  1.412766 S    
C216  H136  1.110848 S    
O32   C26   1.284464 A    
Zn12  O16   1.930930 S    
C159  H67   1.083410 S    
Zn13  O17   1.931026 S    
C34   C42   1.390494 A    
C245  C246  1.525518 S    
C177  O57   1.385359 S    
C28   C48   1.461831 S    
C264  H248  1.110637 S    
C175  C183  1.399345 A    
Zn15  O3    1.940488 S    
N8    O75   1.301475 A    
Zn16  O4    1.940484 S    
C67   C75   1.398194 A    
C233  H174  1.110294 S    
C215  H133  1.111089 S    
C68   C76   1.399289 A    
C237  H185  1.109940 S    
Zn14  O50   1.949294 S    
C207  H115  1.110122 S    
Zn11  O47   1.949341 S    
C263  H245  1.111488 S    
C71   C120  1.477275 S    
C256  H229  1.114807 S    
C24   C192  1.455324 S    
C69   C118  1.477106 S    
N1    O62   1.301193 A    
C90   O82   1.397386 S    
C17   C147  1.457953 S    
C238  C239  1.531750 S    
C101  C122  1.388234 A    
C209  H119  1.111405 S    
C222  H150  1.110315 S    
Zn8   O34   1.931103 S    
O79   C223  1.415396 S    
C73   C122  1.476972 S    
C126  C166  1.408205 A    
C240  H190  1.110822 S    
C138  C146  1.401917 A    
C127  C167  1.408452 A    
O10   C10   1.283319 A    
C11   C114  1.462464 S    
C57   N5    1.437870 S    
C6    C111  1.463281 S    
C90   C98   1.419462 A    
C206  C207  1.528056 S    
C200  H97   1.111948 S    
C181  C189  1.399097 A    
C260  H237  1.111877 S    
C162  C170  1.402818 A    
C211  C212  1.528897 S    
C132  C140  1.394636 A    
C262  H242  1.110550 S    
C85   O77   1.389997 S    
C87   O79   1.394354 S    
C220  H144  1.108347 S    
Zn14  O18   1.931022 S    
O9    C9    1.282243 A    
C198  H93   1.110327 S    
Zn11  O23   1.929975 S    
C207  H114  1.110338 S    
C89   O81   1.396072 S    
O41   C17   1.280495 A    
O86   C244  1.412103 S    
C221  H147  1.109839 S    
C183  C189  1.399022 A    
C230  H168  1.109967 S    
C58   N6    1.440373 S    
O37   C13   1.279777 A    
C114  C122  1.416276 A    
C183  H75   1.082519 S    
Zn11  O1    1.940488 S    
C151  H59   1.082364 S    
C247  H207  1.110713 S    
H17   C93   1.080964 S    
Zn1   O7    1.943936 S    
O60   C214  1.414803 S    
C39   C45   1.401870 A    
C20   C146  1.461858 S    
C9    C116  1.462871 S    
C128  C136  1.394358 A    
O43   C19   1.281443 A    
C44   C48   1.401873 A    
O34   C28   1.284529 A    
Zn5   O35   1.930981 S    
C7    C110  1.462744 S    
C35   C43   1.390504 A    
C173  C181  1.394285 A    
C83   H39   1.083694 S    
Zn2   O8    1.943942 S    
C224  H154  1.109850 S    
O11   C11   1.282676 A    
C60   N8    1.439428 S    
C184  H76   1.083341 S    
C111  C119  1.418717 A    
C30   C50   1.404001 A    
C102  H42   1.084701 S    
Zn6   O42   1.925350 S    
C184  C190  1.395321 A    
C228  H163  1.109942 S    
C53   C61   1.403108 A    
C19   C145  1.461817 S    
C53   C93   1.405410 A    
O40   C16   1.279998 A    
C44   H16   1.083242 S    
C213  H127  1.110038 S    
O16   C16   1.281460 A    
C235  C236  1.534156 S    
C197  H90   1.110704 S    
C244  C245  1.526412 S    
C251  H216  1.111064 S    
C261  H239  1.110692 S    
N4    O68   1.301329 A    
C112  C120  1.416584 A    
C34   H6    1.082804 S    
N3    O65   1.301362 A    
C152  C160  1.390667 A    
C63   C71   1.398704 A    
C153  C161  1.390586 A    
C64   H28   1.083169 S    
C116  C124  1.416689 A    
C237  H183  1.110648 S    
C108  C116  1.399279 A    
C103  C111  1.400140 A    
C42   H14   1.083236 S    
C194  H83   1.111224 S    
C40   H12   1.083256 S    
O13   C13   1.282234 A    
C205  C206  1.528721 S    
C134  H50   1.083668 S    
C127  O87   1.389689 S    
Zn5   O41   1.925353 S    
Zn5   O11   1.943936 S    
Zn3   O39   1.925435 S    
