data_mof_unit_3082.cif
_audit_creation_date              2012-12-11T15:54:51-0500
_audit_creation_method            fapswitch 2.2
_symmetry_space_group_name_H-M    P1
_symmetry_Int_Tables_number       1
_space_group_crystal_system       triclinic
_cell_length_a                    17.88767
_cell_length_b                    24.658485
_cell_length_c                    15.180078
_cell_angle_alpha                 90.065932
_cell_angle_beta                  126.216923
_cell_angle_gamma                 90.201164
_cell_volume                      5401.89682464

loop_
_atom_site_label
_atom_site_type_symbol
_atom_type_description
_atom_site_fract_x
_atom_site_fract_y
_atom_site_fract_z
_atom_type_partial_charge
C1    C     C_R   0.922177 0.858108 0.092669 0.583387
C2    C     C_R   0.151091 0.848980 0.089895 -0.203027
C3    C     C_R   0.321749 0.647225 0.998159 -0.110256
C4    C     C_R   0.688361 0.000640 0.638691 -0.320745
C5    C     C_R   0.190857 0.500339 0.635241 -0.296397
C6    C     C_R   0.960282 0.000099 0.282639 0.072343
C7    C     C_R   0.464579 0.500288 0.287277 0.075842
C8    C     C_R   0.265840 0.955019 0.244111 -0.141489
C9    C     C_R   0.265008 0.046324 0.242710 -0.154616
C10   C     C_R   0.765830 0.454936 0.244139 -0.144049
C11   C     C_R   0.765258 0.546227 0.242988 -0.152115
C12   C     C_R   0.963373 0.045079 0.702133 0.527516
C13   C     C_R   0.643883 0.652483 0.092380 -0.196945
C14   C     C_R   0.960124 0.955132 0.699873 0.521758
C15   C     C_R   0.461928 0.545021 0.701368 0.520800
C16   C     C_R   0.457127 0.454985 0.698272 0.521225
C17   C     C_3   0.067152 0.828232 0.233856 -0.339400
C18   C     C_3   0.063424 0.171739 0.237314 -0.369869
C19   C     C_3   0.558119 0.325682 0.230161 -0.351964
C20   C     C_3   0.546682 0.677076 0.227017 -0.375904
C21   C     C_3   0.790685 0.120676 0.419861 -0.292160
C22   C     C_3   0.731000 0.911889 0.352026 -0.308263
C23   C     C_3   0.285932 0.619192 0.414157 -0.293610
C24   C     C_R   0.647398 0.348830 0.092526 -0.196873
C25   C     C_3   0.232722 0.409957 0.351784 -0.305178
C26   C     C_3   0.480562 0.170647 0.918297 -0.313441
C27   C     C_3   0.460450 0.821283 0.868835 -0.301310
C28   C     C_3   0.942297 0.715229 0.746516 -0.340764
C29   C     C_3   0.951106 0.318184 0.855327 -0.299869
C30   C     C_3   0.706554 0.865905 0.630354 -0.425538
C31   C     C_3   0.783543 0.121858 0.655107 -0.301370
C32   C     C_3   0.209560 0.365873 0.631059 -0.426664
C33   C     C_3   0.287692 0.623764 0.659696 -0.254083
C34   C     C_3   0.060655 0.112019 0.726082 -0.387051
C35   C     C_R   0.320427 0.001240 0.269184 0.028441
C36   C     C_3   0.894068 0.873273 0.645293 -0.407110
C37   C     C_3   0.558503 0.612338 0.724198 -0.386805
C38   C     C_3   0.399325 0.370600 0.648202 -0.416934
C39   C     C_R   0.820579 0.501050 0.269071 0.027293
C40   C     C_R   0.948288 0.000027 0.637938 -0.244735
C41   C     C_R   0.445009 0.500001 0.636394 -0.237075
C42   C     C_R   0.117934 0.817863 0.997682 0.032183
C43   C     C_R   0.109025 0.185758 0.002440 0.089817
C44   C     C_R   0.616676 0.316701 0.003028 0.076290
C45   C     C_R   0.920902 0.140818 0.092294 0.602894
C46   C     C_R   0.609970 0.685565 0.003408 0.094400
C47   C     C_3   0.893528 0.050087 0.363366 -0.610977
C48   C     C_3   0.891747 0.949642 0.360936 -0.582358
C49   C     C_3   0.394755 0.550126 0.364173 -0.609183
C50   C     C_3   0.393586 0.449715 0.362310 -0.581912
C51   C     C_3   0.901088 0.053882 0.469423 0.624647
C52   C     C_3   0.879817 0.951439 0.454126 0.553481
C53   C     C_3   0.399238 0.553623 0.468264 0.617870
C54   C     C_3   0.380266 0.451048 0.454351 0.552666
C55   C     C_3   0.046621 0.999406 0.477734 -0.446277
C56   C     C_R   0.417706 0.361040 0.092485 0.593272
C57   C     C_3   0.548135 0.500081 0.481667 -0.451012
C58   C     C_3   0.947735 0.999817 0.368918 0.313658
C59   C     C_3   0.450137 0.500058 0.371792 0.312474
C60   C     C_3   0.940869 0.999202 0.534999 0.166155
C61   C     C_3   0.439534 0.499207 0.534869 0.166351
C62   C     C_R   0.824208 0.137488 0.909732 -0.231217
C63   C     C_R   0.827053 0.860275 0.911628 -0.189096
C64   C     C_R   0.312255 0.623285 0.909820 -0.247927
C65   C     C_R   0.323151 0.363363 0.911361 -0.192522
C66   C     C_3   0.041262 0.989721 0.572199 -0.620833
C67   C     C_R   0.411040 0.635902 0.089551 0.596732
C68   C     C_3   0.540816 0.490306 0.574539 -0.614748
C69   C     C_3   0.670164 0.175055 0.933728 -0.037968
C70   C     C_3   0.669593 0.824777 0.932149 -0.048994
C71   C     C_3   0.161457 0.692430 0.873252 -0.052942
C72   C     C_3   0.162824 0.326263 0.927245 -0.047627
C73   C     C_3   0.103092 0.741732 0.871804 0.524268
C74   C     C_3   0.096437 0.278027 0.914118 0.546781
C75   C     C_3   0.603494 0.219802 0.931489 0.535464
C76   C     C_3   0.601360 0.778023 0.919512 0.546518
C77   C     C_3   0.314684 0.746713 0.019785 -0.139068
C78   C     C_R   0.052699 0.847682 0.909826 -0.039722
C79   C     C_3   0.280531 0.248294 0.962913 -0.140306
C80   C     C_3   0.786414 0.255179 0.962557 -0.139248
C81   C     C_3   0.782044 0.744780 0.961121 -0.142299
C82   C     C_3   0.807249 0.209810 0.120602 -0.454328
C83   C     C_3   0.803821 0.792153 0.120879 -0.430215
C84   C     C_3   0.245010 0.680755 0.079432 -0.499468
C85   C     C_3   0.296215 0.296362 0.118689 -0.430596
C86   C     C_3   0.774291 0.198783 0.000595 0.232545
C87   C     C_3   0.773207 0.801175 0.001396 0.246703
C88   C     C_3   0.260761 0.691040 0.989538 0.263424
C89   C     C_R   0.048723 0.154123 0.911695 -0.146049
C90   C     C_3   0.267691 0.304676 0.999911 0.246961
C91   C     C_3   0.163223 0.769762 0.990238 0.206698
C92   C     C_3   0.160830 0.232540 0.001137 0.206937
C93   C     C_3   0.667649 0.270025 0.002312 0.183588
C94   C     C_3   0.664091 0.731142 0.003010 0.205205
C95   C     C_3   0.256336 0.792375 0.017993 -0.596375
C96   C     C_3   0.224697 0.205854 0.974745 -0.586591
C97   C     C_3   0.718309 0.294712 0.954937 -0.571211
C98   C     C_3   0.724359 0.703445 0.972180 -0.583218
C99   C     C_3   0.189112 0.727583 0.081836 -0.126308
C100  C     C_R   0.556219 0.347380 0.912070 -0.117945
C101  C     C_3   0.228137 0.258442 0.118251 -0.174233
C102  C     C_3   0.745361 0.251271 0.122663 -0.147318
C103  C     C_3   0.735257 0.755085 0.121266 -0.172171
C104  C     C_3   0.470422 0.953935 0.358320 -0.467642
C105  C     C_3   0.469179 0.054254 0.364384 -0.483011
C106  C     C_3   0.970013 0.452608 0.357696 -0.469780
C107  C     C_3   0.970257 0.553078 0.360552 -0.484631
C108  C     C_R   0.739096 0.954379 0.698230 0.531724
C109  C     C_R   0.742120 0.045149 0.698615 0.512201
C110  C     C_R   0.240475 0.454387 0.696688 0.529041
C111  C     C_R   0.549208 0.654166 0.912230 -0.152159
C112  C     C_R   0.244239 0.544821 0.695375 0.473250
C113  C     C_3   0.566060 0.951215 0.466852 -0.415308
C114  C     C_3   0.572498 0.051044 0.460927 -0.378904
C115  C     C_3   0.066370 0.449994 0.465440 -0.415216
C116  C     C_3   0.074163 0.549528 0.455679 -0.375626
C117  C     C_3   0.421206 0.000403 0.466626 -0.427931
C118  C     C_3   0.923612 0.501578 0.466405 -0.428146
C119  C     C_3   0.418652 0.002550 0.362023 0.391176
C120  C     C_3   0.919432 0.502171 0.360782 0.391371
C121  C     C_3   0.589517 0.002871 0.538680 0.388589
C122  C     C_R   0.144324 0.152508 0.091752 -0.198022
C123  C     C_3   0.091480 0.502495 0.535759 0.387432
C124  C     C_3   0.520504 0.007379 0.571828 0.075035
C125  C     C_3   0.023527 0.508723 0.570307 0.077654
C126  C     C_R   0.990050 0.045255 0.257995 -0.165484
C127  C     C_R   0.986718 0.954734 0.254458 -0.189982
C128  C     C_R   0.492866 0.545486 0.260897 -0.175023
C129  C     C_R   0.491178 0.454895 0.259483 -0.183916
C130  C     C_R   0.838569 0.839045 0.003142 -0.136836
C131  C     C_R   0.837113 0.159537 0.002024 -0.096642
C132  C     C_R   0.332636 0.343484 0.002601 -0.137413
H1    H     H_    0.819757 0.046593 0.291057 0.212110
H2    H     H_    0.090253 0.967175 0.478011 0.185229
H3    H     H_    0.770865 0.873601 0.372162 0.114624
H4    H     H_    0.693056 0.920360 0.263582 0.166412
H5    H     H_    0.678525 0.904721 0.367422 0.155500
H6    H     H_    0.280840 0.630110 0.339769 0.142272
H7    H     H_    0.335552 0.646725 0.482839 0.159345
H8    H     H_    0.216664 0.625673 0.395708 0.166486
H9    H     H_    0.273719 0.372026 0.373594 0.115367
H10   H     H_    0.195668 0.417916 0.263293 0.164602
H11   H     H_    0.179544 0.402451 0.365927 0.155130
H12   H     H_    0.622846 0.190195 0.770993 0.090602
H13   H     H_    0.582843 0.539870 0.494024 0.173866
H14   H     H_    0.573657 0.136858 0.784865 0.088319
H15   H     H_    0.636943 0.816544 0.774016 0.124250
H16   H     H_    0.575294 0.864486 0.784360 0.089095
H17   H     H_    0.200000 0.733772 0.781577 0.089399
H18   H     H_    0.108235 0.691324 0.706932 0.101816
H19   H     H_    0.133882 0.317645 0.770959 0.123249
H20   H     H_    0.068611 0.364353 0.777506 0.088252
H21   H     H_    0.618655 0.098763 0.939311 0.103811
H22   H     H_    0.676668 0.131542 0.058940 0.146554
H23   H     H_    0.605681 0.890994 0.948329 0.128154
H24   H     H_    0.592800 0.468070 0.483420 0.184983
H25   H     H_    0.717676 0.900200 0.006613 0.105102
H26   H     H_    0.061352 0.632416 0.776405 0.107223
H27   H     H_    0.088347 0.635953 0.901828 0.149297
H28   H     H_    0.093642 0.391114 0.938423 0.129104
H29   H     H_    0.205579 0.402483 0.999145 0.104476
H30   H     H_    0.483334 0.139812 0.867115 0.129659
H31   H     H_    0.421364 0.198403 0.866418 0.154349
H32   H     H_    0.467706 0.148880 0.972095 0.170924
H33   H     H_    0.408372 0.789805 0.814710 0.152012
H34   H     H_    0.468305 0.851302 0.820529 0.122457
H35   H     H_    0.093527 0.015220 0.642405 0.190848
H36   H     H_    0.433460 0.843667 0.907906 0.174712
H37   H     H_    0.959705 0.698021 0.693267 0.132575
H38   H     H_    0.904061 0.753737 0.712395 0.148457
H39   H     H_    0.894614 0.686072 0.745870 0.171884
H40   H     H_    0.903045 0.285885 0.798710 0.152719
H41   H     H_    0.959567 0.349730 0.809905 0.125102
H42   H     H_    0.918404 0.337886 0.890359 0.180122
H43   H     H_    0.139046 0.802424 0.802311 0.079987
H44   H     H_    0.043975 0.766956 0.707867 0.084446
H45   H     H_    0.085581 0.240040 0.783437 0.066336
H46   H     H_    0.062140 0.947160 0.600679 0.225487
H47   H     H_    0.998641 0.281751 0.741689 0.070977
H48   H     H_    0.554177 0.256935 0.780483 0.049420
H49   H     H_    0.486888 0.206425 0.767607 0.073022
H50   H     H_    0.583642 0.740488 0.784364 0.063109
H51   H     H_    0.499948 0.783937 0.747861 0.070539
H52   H     H_    0.309178 0.787086 0.893506 0.100338
H53   H     H_    0.366003 0.726903 0.929474 0.141032
H54   H     H_    0.248735 0.208053 0.824414 0.098571
H55   H     H_    0.313743 0.261867 0.856385 0.095893
H56   H     H_    0.722600 0.242040 0.794641 0.113940
H57   H     H_    0.592102 0.515891 0.645185 0.191770
H58   H     H_    0.840819 0.237508 0.876883 0.126047
H59   H     H_    0.745555 0.705643 0.819507 0.104917
H60   H     H_    0.815016 0.757509 0.854122 0.107775
H61   H     H_    0.650318 0.248879 0.160470 0.147037
H62   H     H_    0.702353 0.189779 0.180515 0.143072
H63   H     H_    0.635899 0.760678 0.150641 0.135523
H64   H     H_    0.672548 0.821567 0.139398 0.175061
H65   H     H_    0.062778 0.738180 0.058152 0.131025
H66   H     H_    0.075364 0.675785 0.023502 0.163837
H67   H     H_    0.123087 0.263913 0.137923 0.139836
H68   H     H_    0.562098 0.447842 0.603457 0.228862
H69   H     H_    0.161963 0.324715 0.131254 0.170931
H70   H     H_    0.764180 0.837833 0.683592 0.151341
H71   H     H_    0.712041 0.882981 0.567213 0.146951
H72   H     H_    0.644036 0.839537 0.587905 0.175578
H73   H     H_    0.787900 0.097633 0.596619 0.211243
H74   H     H_    0.852566 0.126610 0.734068 0.181015
H75   H     H_    0.759029 0.162915 0.619951 0.157437
H76   H     H_    0.267695 0.338716 0.687383 0.155566
H77   H     H_    0.215908 0.382470 0.568238 0.149882
H78   H     H_    0.147798 0.338892 0.588284 0.176852
H79   H     H_    0.773036 0.148701 0.826700 0.205854
H80   H     H_    0.295255 0.602054 0.601423 0.208986
H81   H     H_    0.354549 0.627389 0.741386 0.176223
H82   H     H_    0.264047 0.665459 0.628186 0.151855
H83   H     H_    0.530148 0.926348 0.620935 0.136392
H84   H     H_    0.600888 0.970392 0.724967 0.133503
H85   H     H_    0.594061 0.066285 0.692265 0.136669
H86   H     H_    0.510540 0.092521 0.568114 0.117977
H87   H     H_    0.032634 0.428420 0.622485 0.138150
H88   H     H_    0.104638 0.473005 0.724748 0.132069
H89   H     H_    0.097633 0.568052 0.689929 0.128480
H90   H     H_    0.778983 0.846326 0.831335 0.206096
H91   H     H_    0.016572 0.594046 0.564444 0.118272
H92   H     H_    0.082752 0.097160 0.676368 0.139223
H93   H     H_    0.110013 0.097426 0.811468 0.161635
H94   H     H_    0.066010 0.156429 0.724752 0.177312
H95   H     H_    0.833169 0.889495 0.568079 0.176150
H96   H     H_    0.881148 0.874377 0.707803 0.161013
H97   H     H_    0.903238 0.830936 0.629370 0.175010
H98   H     H_    0.579921 0.598495 0.673212 0.140259
H99   H     H_    0.608533 0.597178 0.809018 0.162854
H100  H     H_    0.563362 0.656826 0.723777 0.176443
H101  H     H_    0.251152 0.618800 0.829483 0.222703
H102  H     H_    0.336774 0.384311 0.569520 0.176044
H103  H     H_    0.387434 0.370416 0.711723 0.166207
H104  H     H_    0.413659 0.328531 0.636294 0.178852
H105  H     H_    0.824033 0.948474 0.278966 0.186057
H106  H     H_    0.274399 0.349679 0.831150 0.210503
H107  H     H_    0.245851 0.826368 0.964050 0.188410
H108  H     H_    0.185602 0.179283 0.902152 0.176867
H109  H     H_    0.669864 0.309320 0.869921 0.197885
H110  H     H_    0.682535 0.678299 0.898022 0.176494
H111  H     H_    0.876960 0.229011 0.169889 0.213740
H112  H     H_    0.871344 0.770714 0.169604 0.212612
H113  H     H_    0.311902 0.678595 0.161797 0.206641
H114  H     H_    0.364139 0.275522 0.169397 0.215754
H115  H     H_    0.814231 0.171771 0.163999 0.184685
H116  H     H_    0.321685 0.546597 0.290274 0.212147
H117  H     H_    0.813670 0.831170 0.163598 0.184922
H118  H     H_    0.212839 0.640518 0.069452 0.162651
H119  H     H_    0.304097 0.335586 0.159868 0.183590
H120  H     H_    0.236309 0.748077 0.162400 0.130339
H121  H     H_    0.272053 0.226211 0.177967 0.134267
H122  H     H_    0.790486 0.287124 0.168019 0.133904
H123  H     H_    0.778153 0.721615 0.178049 0.134184
H124  H     H_    0.376374 0.744415 0.106073 0.207440
H125  H     H_    0.355097 0.236665 0.020149 0.152245
H126  H     H_    0.857067 0.270679 0.028605 0.156402
H127  H     H_    0.326250 0.448745 0.279914 0.186871
H128  H     H_    0.855916 0.731627 0.017007 0.146283
H129  H     H_    0.297204 0.811566 0.100646 0.182199
H130  H     H_    0.274193 0.177819 0.042161 0.182677
H131  H     H_    0.757763 0.331814 0.002305 0.187633
H132  H     H_    0.772427 0.673899 0.036976 0.183007
H133  H     H_    0.434681 0.914639 0.344799 0.147272
H134  H     H_    0.439239 0.091081 0.374455 0.153013
H135  H     H_    0.934029 0.413691 0.346353 0.147573
H136  H     H_    0.941469 0.590506 0.370513 0.152916
H137  H     H_    0.476790 0.958725 0.290051 0.180849
H138  H     H_    0.951329 0.086931 0.516751 0.067369
H139  H     H_    0.461658 0.058590 0.286531 0.172153
H140  H     H_    0.975225 0.456133 0.288352 0.180243
H141  H     H_    0.961322 0.556412 0.281722 0.172385
H142  H     H_    0.618306 0.945674 0.450454 0.177173
H143  H     H_    0.614820 0.045154 0.429818 0.198055
H144  H     H_    0.117639 0.443258 0.447869 0.177314
H145  H     H_    0.114902 0.541992 0.422974 0.200596
H146  H     H_    0.562587 0.915282 0.506412 0.204222
H147  H     H_    0.591056 0.091371 0.499426 0.213395
H148  H     H_    0.063240 0.414609 0.506596 0.207088
H149  H     H_    0.907147 0.912340 0.496563 0.083373
H150  H     H_    0.094670 0.590195 0.492639 0.212204
H151  H     H_    0.391227 0.960940 0.467715 0.146694
H152  H     H_    0.375292 0.032058 0.463306 0.152497
H153  H     H_    0.893466 0.462583 0.469309 0.147657
H154  H     H_    0.878547 0.533843 0.463096 0.152320
H155  H     H_    0.999027 0.084880 0.290999 0.176007
H156  H     H_    0.988117 0.914228 0.279849 0.177363
H157  H     H_    0.501413 0.585565 0.292380 0.172158
H158  H     H_    0.497236 0.414956 0.289763 0.179875
H159  H     H_    0.287161 0.913259 0.261005 0.089431
H160  H     H_    0.448023 0.587139 0.515807 0.070000
H161  H     H_    0.285426 0.088446 0.257024 0.094914
H162  H     H_    0.786803 0.413114 0.260132 0.089769
H163  H     H_    0.785948 0.588327 0.257423 0.094219
H164  H     H_    0.998332 0.831039 0.833160 0.145654
H165  H     H_    0.000597 0.167576 0.829040 0.153456
H166  H     H_    0.522837 0.335092 0.830042 0.151139
H167  H     H_    0.501824 0.667754 0.829552 0.152675
H168  H     H_    0.187703 0.163932 0.176827 0.085256
H169  H     H_    0.198466 0.836441 0.173941 0.087830
H170  H     H_    0.685466 0.664104 0.177439 0.086199
H171  H     H_    0.408304 0.412145 0.497294 0.085230
H172  H     H_    0.691786 0.338178 0.177831 0.089915
H173  H     H_    0.919888 0.088756 0.354015 0.134820
H174  H     H_    0.928404 0.911514 0.369572 0.143076
H175  H     H_    0.422040 0.588828 0.356293 0.138045
H176  H     H_    0.430219 0.411588 0.370945 0.145404
H177  H     H_    0.102707 0.867733 0.248619 0.161055
H178  H     H_    0.071063 0.802292 0.177050 0.153265
H179  H     H_    0.104621 0.806852 0.313281 0.172375
H180  H     H_    0.065901 0.199505 0.182012 0.159427
H181  H     H_    0.101355 0.133568 0.250506 0.164432
H182  H     H_    0.081635 0.039022 0.489619 0.173040
H183  H     H_    0.098892 0.192386 0.317606 0.175714
H184  H     H_    0.599723 0.363121 0.248587 0.161000
H185  H     H_    0.555610 0.300173 0.168398 0.161671
H186  H     H_    0.592748 0.301850 0.306583 0.175466
H187  H     H_    0.578014 0.701938 0.302079 0.176575
H188  H     H_    0.545157 0.702340 0.165518 0.165227
H189  H     H_    0.591140 0.640870 0.248595 0.161166
H190  H     H_    0.787220 0.132137 0.346802 0.132828
H191  H     H_    0.840506 0.147464 0.489909 0.167806
H192  H     H_    0.721063 0.127620 0.400114 0.164452
N1    N     N_R   0.950530 0.896220 0.057200 -0.096283
N2    N     N_R   0.818150 0.028600 0.792440 -0.122264
N3    N     N_R   0.318150 0.471400 0.792440 -0.120654
N4    N     N_R   0.318150 0.528600 0.792440 -0.125845
N5    N     N_R   0.025710 0.028600 0.207560 -0.046430
N6    N     N_R   0.025710 0.971400 0.207560 -0.045363
N7    N     N_R   0.525710 0.528600 0.207560 -0.047440
N8    N     N_R   0.525710 0.471400 0.207560 -0.045499
N9    N     N_R   0.181850 0.971400 0.207560 -0.042103
N10   N     N_R   0.181850 0.028600 0.207560 -0.041865
N11   N     N_R   0.681850 0.471400 0.207560 -0.041273
N12   N     N_R   0.950530 0.103780 0.057200 -0.093934
N13   N     N_R   0.681850 0.528600 0.207560 -0.040266
N14   N     N_R   0.974290 0.028600 0.792440 -0.135968
N15   N     N_R   0.974290 0.971400 0.792440 -0.132146
N16   N     N_R   0.474290 0.528600 0.792440 -0.134609
N17   N     N_R   0.474290 0.471400 0.792440 -0.129970
N18   N     N_R   0.049470 0.896220 0.942800 -0.043488
N19   N     N_R   0.049470 0.103780 0.942800 -0.038090
N20   N     N_R   0.549470 0.396220 0.942800 -0.031219
N21   N     N_R   0.549470 0.603780 0.942800 -0.037052
N22   N     N_R   0.106670 0.103780 0.057200 -0.035923
N23   N     N_R   0.450530 0.396220 0.057200 -0.095628
N24   N     N_R   0.106670 0.896220 0.057200 -0.037258
N25   N     N_R   0.606670 0.603780 0.057200 -0.034876
N26   N     N_R   0.606670 0.396220 0.057200 -0.036323
N27   N     N_3   0.636027 0.158239 0.822328 -0.216049
N28   N     N_3   0.640125 0.846069 0.825181 -0.203089
N29   N     N_3   0.171256 0.697647 0.783295 -0.218958
N30   N     N_3   0.134494 0.347138 0.820456 -0.206108
N31   N     N_3   0.674798 0.124653 0.990139 -0.202907
N32   N     N_3   0.669362 0.871159 0.993803 -0.200483
N33   N     N_3   0.115964 0.639346 0.857989 -0.209438
N34   N     N_R   0.450530 0.603780 0.057200 -0.093725
N35   N     N_3   0.158370 0.372529 0.985973 -0.200521
N36   N     N_3   0.081109 0.782500 0.787040 -0.217331
N37   N     N_3   0.042200 0.253966 0.802786 -0.240008
N38   N     N_3   0.528662 0.238196 0.819139 -0.237419
N39   N     N_3   0.542980 0.755276 0.807058 -0.239598
N40   N     N_3   0.352029 0.760857 0.958376 -0.204255
N41   N     N_3   0.256352 0.247990 0.851919 -0.224312
N42   N     N_3   0.783491 0.257125 0.863886 -0.218935
N43   N     N_3   0.756823 0.745276 0.849624 -0.225517
N44   N     N_3   0.713123 0.231554 0.186829 -0.220083
N45   N     N_R   0.893330 0.103780 0.942800 -0.064692
N46   N     N_3   0.693691 0.782266 0.168973 -0.220233
N47   N     N_3   0.110416 0.707323 0.079492 -0.217640
N48   N     N_3   0.182322 0.285388 0.160977 -0.220716
N49   N     N_3   0.535942 0.965554 0.650255 -0.220639
N50   N     N_3   0.527301 0.060314 0.621232 -0.222578
N51   N     N_3   0.039297 0.467996 0.650646 -0.219694
N52   N     N_3   0.031355 0.562386 0.617929 -0.221782
N53   N     N_R   0.893330 0.896220 0.942800 -0.067165
N54   N     N_R   0.393330 0.603780 0.942800 -0.067981
N55   N     N_R   0.393330 0.396220 0.942800 -0.066108
N56   N     N_R   0.818150 0.971400 0.792440 -0.122495
Ni1   Ni    Ni4+2 0.065600 0.934400 0.131190 0.192582
Ni2   Ni    Ni4+2 0.065600 0.065600 0.131190 0.194278
Ni3   Ni    Ni4+2 0.565600 0.434400 0.131190 0.194849
Ni4   Ni    Ni4+2 0.565600 0.565600 0.131190 0.191474
Ni5   Ni    Ni4+2 0.934400 0.065600 0.868810 0.201329
Ni6   Ni    Ni4+2 0.934400 0.934400 0.868810 0.194799
Ni7   Ni    Ni4+2 0.434400 0.565600 0.868810 0.199523
Ni8   Ni    Ni4+2 0.434400 0.434400 0.868810 0.197828
O1    O     O_3   0.974537 0.834996 0.195685 -0.669558
O2    O     O_3   0.545074 0.796792 0.951892 -0.627766
O3    O     O_3   0.019891 0.723185 0.856022 -0.639233
O4    O     O_3   0.036381 0.295686 0.941835 -0.633115
O5    O     O_3   0.697336 0.905509 0.691005 -0.631399
O6    O     O_3   0.719938 0.098758 0.670087 -0.668708
O7    O     O_3   0.197272 0.405996 0.688081 -0.636653
O8    O     O_3   0.220575 0.598342 0.665531 -0.673106
O9    O     O_3   0.967439 0.098667 0.680131 -0.637642
O10   O     O_3   0.974339 0.902891 0.681543 -0.623693
O11   O     O_3   0.465583 0.598609 0.678925 -0.641384
O12   O     O_3   0.971103 0.161624 0.197326 -0.674161
O13   O     O_3   0.476039 0.403446 0.681952 -0.629644
O14   O     O_3   0.467884 0.337925 0.195251 -0.670882
O15   O     O_3   0.456186 0.662316 0.189377 -0.673870
O16   O     O_3   0.813466 0.065390 0.446605 -0.567773
O17   O     O_3   0.785542 0.957647 0.413697 -0.572231
O18   O     O_3   0.310315 0.564181 0.442547 -0.566399
O19   O     O_3   0.285592 0.456260 0.412819 -0.571205
O20   O     O_3   0.563898 0.200612 0.984714 -0.634582

loop_
_geom_bond_atom_site_label_1
_geom_bond_atom_site_label_2
_ccdc_geom_bond_type
C37   H100  S    
C57   H13   S    
H66   N47   S    
C6    C58   S    
C18   H181  S    
C41   C61   S    
C48   H105  S    
C89   H165  S    
N9    N10   A    
C106  H135  S    
C43   C89   A    
N45   Ni5   S    
C15   O11   S    
C50   C59   S    
C69   N31   S    
C87   C130  S    
C6    C127  A    
C117  C119  S    
C21   H192  S    
H59   N43   S    
H91   N52   S    
C57   C59   S    
C39   C120  S    
C17   H177  S    
C26   H31   S    
C74   C92   S    
C104  H137  S    
C79   C90   S    
C80   C86   S    
H62   N44   S    
C112  N4    A    
C77   C88   S    
H64   N46   S    
H60   N43   S    
C10   N11   A    
C7    C128  A    
N53   Ni6   S    
C20   H187  S    
C18   O12   S    
N1    Ni1   S    
C83   H117  S    
C74   N37   S    
C63   H90   S    
C77   H124  S    
H20   N30   S    
H27   N33   S    
C7    C59   S    
H88   N51   S    
C114  H143  S    
C9    N10   A    
C30   H70   S    
C115  C123  S    
C34   H93   S    
N16   N17   A    
N15   Ni6   S    
C38   H103  S    
N11   N13   A    
C101  N48   S    
C33   H81   S    
C83   H112  S    
C74   O4    S    
C8    C35   A    
C12   C40   A    
C101  H121  S    
C31   H75   S    
H89   N52   S    
C18   H183  S    
H16   N28   S    
C95   H107  S    
C11   N13   A    
C43   C122  A    
C109  N2    A    
C27   H33   S    
C17   O1    S    
C28   H38   S    
C126  N5    A    
C99   N47   S    
N20   Ni8   S    
C33   O8    S    
N10   Ni2   S    
C107  C120  S    
C75   C93   S    
C96   H130  S    
C56   N23   A    
C84   C88   S    
C85   C90   S    
C54   C61   S    
C17   H179  S    
C18   H180  S    
C106  C115  S    
C78   N18   A    
C71   N33   S    
C22   O17   S    
C79   C96   S    
C30   O5    S    
C38   H104  S    
C32   H77   S    
C68   H57   S    
C49   C53   S    
C70   N32   S    
C107  H141  S    
C118  C120  S    
C98   H110  S    
C49   H116  S    
C97   H131  S    
C71   C88   S    
C98   H132  S    
C20   H189  S    
C95   H129  S    
C62   N45   A    
C124  N49   S    
H65   N47   S    
H43   N36   S    
C48   C52   S    
C113  H146  S    
C13   N25   A    
C115  H148  S    
C4    C109  A    
C40   C60   S    
C116  C123  S    
C24   N26   A    
C80   C97   S    
C25   H10   S    
C75   O20   S    
H19   N30   S    
C9    H161  S    
C3    C64   A    
C31   O6    S    
C11   H163  S    
C22   H5    S    
C83   C103  S    
C66   H35   S    
H55   N41   S    
C23   O18   S    
H67   N48   S    
C31   H73   S    
N17   Ni8   S    
C53   O18   S    
C5    C110  A    
N5    Ni2   S    
C92   C96   S    
C63   C130  A    
C118  H153  S    
C52   C60   S    
N3    Ni8   S    
C53   C61   S    
C128  N7    A    
C54   O19   S    
C19   H184  S    
C32   H76   S    
C104  C119  S    
C76   C94   S    
C27   O2    S    
H69   N48   S    
C70   C87   S    
H83   N49   S    
C65   N55   A    
C56   O14   S    
C57   H24   S    
C125  N51   S    
C79   H125  S    
C23   H8    S    
C29   O4    S    
C104  H133  S    
C55   H182  S    
H52   N40   S    
C67   N34   A    
C72   C90   S    
C46   C94   S    
N1    N53   A    
H22   N31   S    
C82   C102  S    
N56   Ni6   S    
C47   H173  S    
C72   N30   S    
H14   N27   S    
C114  H147  S    
C129  H158  S    
C85   H119  S    
C36   H95   S    
N13   Ni4   S    
C13   H170  S    
C65   H106  S    
C57   C68   S    
C93   C97   S    
C65   C132  A    
C37   H99   S    
N11   Ni3   S    
C110  O7    S    
C3    C88   S    
C73   N36   S    
C100  N20   A    
C81   N43   S    
C52   O17   S    
C54   H171  S    
C50   H176  S    
H61   N44   S    
C5    C112  A    
N16   Ni7   S    
C43   C92   S    
N21   Ni7   S    
H47   N37   S    
C117  H152  S    
N18   N24   A    
C21   H191  S    
C44   C100  A    
C85   H114  S    
N12   Ni2   S    
C2    C42   A    
C26   H32   S    
C63   N53   A    
C82   H111  S    
H23   N32   S    
H87   N51   S    
C107  C116  S    
C91   C95   S    
C104  C113  S    
C113  C121  S    
C51   H138  S    
C107  H136  S    
C109  O6    S    
C51   C60   S    
H25   N32   S    
C91   C99   S    
C110  N3    A    
C129  N8    A    
C16   C41   A    
C8    H159  S    
C20   H188  S    
C83   C87   S    
C38   O13   S    
N55   Ni8   S    
C103  H123  S    
C23   H6    S    
C116  H150  S    
C29   H42   S    
C20   O15   S    
C12   N14   A    
C30   H71   S    
C4    C108  A    
C50   C54   S    
H26   N33   S    
C34   H94   S    
C117  C124  S    
C76   N39   S    
C67   O15   S    
C16   N17   A    
C33   H80   S    
C123  C125  S    
H56   N42   S    
C81   C98   S    
C94   C98   S    
H53   N40   S    
N7    Ni4   S    
C36   O10   S    
C52   H149  S    
C114  C121  S    
C115  H144  S    
C36   H97   S    
C69   N27   S    
C118  C125  S    
C27   H36   S    
C10   H162  S    
C90   C132  S    
C60   C66   S    
N23   N55   A    
C46   C111  A    
C47   H1    S    
C96   H108  S    
C19   H185  S    
C64   N54   A    
H86   N50   S    
C118  H154  S    
H63   N46   S    
C45   N12   A    
C30   H72   S    
N20   N26   A    
C84   H118  S    
C6    C126  A    
C72   C74   S    
C1    C130  A    
C80   N42   S    
C47   C51   S    
C82   C86   S    
C17   H178  S    
C26   H30   S    
N2    Ni5   S    
C22   H4    S    
C10   C39   A    
C102  H122  S    
C2    N24   A    
N7    N8    A    
C34   O9    S    
C62   C131  A    
C28   O3    S    
C32   H78   S    
C78   H164  S    
C89   N19   A    
H48   N38   S    
N14   Ni5   S    
C15   C41   A    
C81   C87   S    
N23   Ni3   S    
C92   C101  S    
C75   N38   S    
C94   C103  S    
C45   C131  A    
C111  H167  S    
C124  N50   S    
C24   C44   A    
C127  N6    A    
C80   H126  S    
C100  H166  S    
N54   Ni7   S    
C55   C66   S    
N9    Ni1   S    
C71   C73   S    
C81   H128  S    
H45   N37   S    
C111  N21   A    
C84   C99   S    
C127  H156  S    
C25   H9    S    
C73   O3    S    
H51   N39   S    
C99   H120  S    
C49   H175  S    
C49   C59   S    
C93   C102  S    
C38   H102  S    
C45   O12   S    
C33   H82   S    
C48   C58   S    
C55   H2    S    
H58   N42   S    
N19   Ni5   S    
C48   H174  S    
H28   N35   S    
N3    N4    A    
C13   C46   A    
C14   N15   A    
C108  N56   A    
C1    O1    S    
H21   N31   S    
C4    C121  S    
C69   C75   S    
C122  H168  S    
C2    H169  S    
N21   N25   A    
C7    C129  A    
C19   O14   S    
C79   N41   S    
C27   H34   S    
C97   H109  S    
C24   H172  S    
N2    N56   A    
C28   H37   S    
C103  N46   S    
N12   N45   A    
C32   O7    S    
C55   C58   S    
C9    C35   A    
N8    Ni3   S    
C105  C119  S    
C122  N22   A    
H29   N35   S    
C16   O13   S    
C105  H139  S    
C70   N28   S    
C106  H140  S    
N5    N6    A    
C35   C119  S    
N24   Ni1   S    
N26   Ni3   S    
C66   H46   S    
C82   H115  S    
C23   H7    S    
C116  H145  S    
N34   Ni4   S    
C8    N9    A    
C86   C131  S    
N6    Ni1   S    
C50   H127  S    
H85   N50   S    
C42   C91   S    
C125  N52   S    
C44   C93   S    
H84   N49   S    
C77   N40   S    
H15   N28   S    
C121  C124  S    
C62   H79   S    
C15   N16   A    
C72   N35   S    
H54   N41   S    
C37   O11   S    
C25   O19   S    
N34   N54   A    
C22   H3    S    
C36   H96   S    
C126  H155  S    
C25   H11   S    
H50   N39   S    
C34   H92   S    
C37   H98   S    
C51   O16   S    
H44   N36   S    
C105  C114  S    
C73   C91   S    
C31   H74   S    
N18   Ni6   S    
C105  H134  S    
H49   N38   S    
C77   C95   S    
C84   H113  S    
C117  H151  S    
C14   O10   S    
C53   H160  S    
C21   H190  S    
C112  O8    S    
C28   H39   S    
C102  N44   S    
H18   N29   S    
C56   C132  A    
C11   C39   A    
C71   N29   S    
C128  H157  S    
C42   C78   A    
C70   C76   S    
C108  O5    S    
C85   C101  S    
C12   O9    S    
N4    Ni7   S    
C106  C120  S    
C3    C67   A    
C29   H41   S    
C113  H142  S    
N22   Ni2   S    
H17   N29   S    
C5    C123  S    
C68   H68   S    
N25   Ni4   S    
C64   H101  S    
C47   C58   S    
C61   C68   S    
C26   O20   S    
C29   H40   S    
C14   C40   A    
C21   O16   S    
N14   N15   A    
N19   N22   A    
C76   O2    S    
H12   N27   S    
C19   H186  S    
C1    N1    A    
C69   C86   S    
