data_mof_unit_3406.cif
_audit_creation_date              2013-03-05T15:55:43-0500
_audit_creation_method            fapswitch 2.2
_symmetry_space_group_name_H-M    P1
_symmetry_Int_Tables_number       1
_space_group_crystal_system       triclinic
_cell_length_a                    24.43582
_cell_length_b                    24.435896
_cell_length_c                    42.782304
_cell_angle_alpha                 90.000373
_cell_angle_beta                  90.00033
_cell_angle_gamma                 90.00044
_cell_volume                      25545.7910044

loop_
_atom_site_label
_atom_site_type_symbol
_atom_site_description
_atom_site_fract_x
_atom_site_fract_y
_atom_site_fract_z
_atom_type_partial_charge
Zn1   Zn    Zn3+2 0.500000 0.934510 0.776050 0.992481
Zn2   Zn    Zn3+2 0.500000 0.065490 0.223950 0.991460
Zn3   Zn    Zn3+2 0.065490 0.500000 0.776050 0.979346
Zn4   Zn    Zn3+2 0.934510 0.500000 0.223950 0.974977
Zn5   Zn    Zn3+2 0.500000 0.065490 0.776050 0.992458
Zn6   Zn    Zn3+2 0.500000 0.934510 0.223950 0.991452
Zn7   Zn    Zn3+2 0.934510 0.500000 0.776050 0.979344
Zn8   Zn    Zn3+2 0.065490 0.500000 0.223950 0.974987
Zn9   Zn    Zn3+2 0.000000 0.434510 0.276050 0.979293
Zn10  Zn    Zn3+2 0.000000 0.565490 0.723950 0.974985
Zn11  Zn    Zn3+2 0.565490 1.000000 0.276050 0.992391
Zn12  Zn    Zn3+2 0.434510 0.000000 0.723950 0.991471
Zn13  Zn    Zn3+2 0.000000 0.565490 0.276050 0.979313
Zn14  Zn    Zn3+2 0.000000 0.434510 0.723950 0.974989
Zn15  Zn    Zn3+2 0.434510 1.000000 0.276050 0.992415
Zn16  Zn    Zn3+2 0.565490 0.000000 0.723950 0.991448
C1    C     C_R   0.500006 0.000001 0.934025 -0.023597
C2    C     C_R   0.500006 1.000000 0.066009 -0.022962
C3    C     C_R   0.000000 0.500001 0.934166 -0.020164
C4    C     C_R   1.000000 0.500001 0.065898 -0.019068
C5    C     C_R   0.999996 0.499998 0.434166 -0.020191
C6    C     C_R   0.999997 0.499998 0.565897 -0.019023
C7    C     C_R   0.500001 0.000000 0.434026 -0.023694
C8    C     C_R   0.499999 0.000000 0.566011 -0.022959
C9    C     C_R   0.449564 0.997557 0.917620 0.173240
C10   C     C_R   0.550158 0.005972 0.082396 0.172416
C11   C     C_R   0.030579 0.459892 0.917830 0.169035
C12   C     C_R   0.970318 0.540786 0.082245 0.168364
C13   C     C_R   0.550446 0.002446 0.917619 0.173237
C14   C     C_R   0.449853 0.994027 0.082393 0.172419
C15   C     C_R   0.969422 0.540111 0.917830 0.169033
C16   C     C_R   0.029681 0.459216 0.082244 0.168362
C17   C     C_R   0.959878 0.469431 0.417828 0.169013
C18   C     C_R   0.040774 0.529691 0.582243 0.168361
C19   C     C_R   0.503055 0.949594 0.417619 0.173223
C20   C     C_R   0.493268 0.050056 0.582397 0.172347
C21   C     C_R   0.040114 0.530567 0.417830 0.169016
C22   C     C_R   0.959220 0.470305 0.582244 0.168362
C23   C     C_R   0.496948 0.050406 0.417619 0.173224
C24   C     C_R   0.506731 0.949945 0.582397 0.172347
O1    O     O_3   0.500000 1.000000 0.750000 -0.523576
O2    O     O_3   0.500000 0.000000 0.250000 -0.523518
O3    O     O_3   0.000000 0.500000 0.750000 -0.510838
O4    O     O_3   0.000000 0.500000 0.250000 -0.510847
O5    O     O_R   0.454060 1.000000 0.680770 -0.637541
O6    O     O_R   0.545940 0.000000 0.319230 -0.637212
O7    O     O_R   0.000000 0.454060 0.680770 -0.642735
O8    O     O_R   0.000000 0.545940 0.319230 -0.639501
O9    O     O_R   0.545940 1.000000 0.680770 -0.637573
O10   O     O_R   0.454060 0.000000 0.319230 -0.637178
O11   O     O_R   1.000000 0.545940 0.680770 -0.642724
O12   O     O_R   0.000000 0.454060 0.319230 -0.639499
O13   O     O_R   0.954060 0.500000 0.180770 -0.642803
O14   O     O_R   0.045940 0.500000 0.819230 -0.639393
O15   O     O_R   0.500000 0.954060 0.180770 -0.637673
O16   O     O_R   0.500000 0.045940 0.819230 -0.637085
O17   O     O_R   0.045940 0.500000 0.180770 -0.642793
O18   O     O_R   0.954060 0.500000 0.819230 -0.639411
O19   O     O_R   0.500000 0.045940 0.180770 -0.637657
O20   O     O_R   0.500000 0.954060 0.819230 -0.637052
O21   O     O_R   0.610280 0.935490 0.731900 -0.606777
O22   O     O_R   0.389720 0.064510 0.268100 -0.589451
O23   O     O_R   0.064510 0.610280 0.731900 -0.597023
O24   O     O_R   0.935490 0.389720 0.268100 -0.610825
O25   O     O_R   0.389720 0.064510 0.731900 -0.606783
O26   O     O_R   0.610280 0.935490 0.268100 -0.589446
O27   O     O_R   0.935490 0.389720 0.731900 -0.597029
O28   O     O_R   0.064510 0.610280 0.268100 -0.610776
O29   O     O_R   0.389720 0.935490 0.268100 -0.606265
O30   O     O_R   0.610280 0.064510 0.731900 -0.589717
O31   O     O_R   0.935490 0.610280 0.268100 -0.594510
O32   O     O_R   0.064510 0.389720 0.731900 -0.611478
O33   O     O_R   0.610280 0.064510 0.268100 -0.606293
O34   O     O_R   0.389720 0.935490 0.731900 -0.589718
O35   O     O_R   0.064510 0.389720 0.268100 -0.594511
O36   O     O_R   0.935490 0.610280 0.731900 -0.611492
O37   O     O_R   0.110280 0.435490 0.231900 -0.597041
O38   O     O_R   0.889720 0.564510 0.768100 -0.610844
O39   O     O_R   0.564510 0.110280 0.231900 -0.606719
O40   O     O_R   0.435490 0.889720 0.768100 -0.589424
O41   O     O_R   0.889720 0.564510 0.231900 -0.597051
O42   O     O_R   0.110280 0.435490 0.768100 -0.610853
O43   O     O_R   0.435490 0.889720 0.231900 -0.606684
O44   O     O_R   0.564510 0.110280 0.768100 -0.589431
O45   O     O_R   0.889720 0.435490 0.768100 -0.594473
O46   O     O_R   0.110280 0.564510 0.231900 -0.611423
O47   O     O_R   0.435490 0.110280 0.768100 -0.606329
O48   O     O_R   0.564510 0.889720 0.231900 -0.589737
O49   O     O_R   0.110280 0.564510 0.768100 -0.594469
O50   O     O_R   0.889720 0.435490 0.231900 -0.611454
O51   O     O_R   0.564510 0.889720 0.768100 -0.606338
O52   O     O_R   0.435490 0.110280 0.231900 -0.589727
C25   C     C_R   0.449677 0.999062 0.884517 0.149721
C26   C     C_R   0.550105 0.005003 0.115506 0.148619
C27   C     C_R   0.028512 0.458452 0.884795 0.141864
C28   C     C_R   0.972521 0.542234 0.115274 0.128263
C29   C     C_R   0.550330 0.000942 0.884516 0.149710
C30   C     C_R   0.449902 0.994995 0.115504 0.148614
C31   C     C_R   0.971489 0.541549 0.884795 0.141858
C32   C     C_R   0.027478 0.457767 0.115274 0.128241
C33   C     C_R   0.958440 0.471500 0.384793 0.141823
C34   C     C_R   0.042224 0.527491 0.615273 0.128094
C35   C     C_R   0.501492 0.949690 0.384518 0.149707
C36   C     C_R   0.494278 0.050024 0.615506 0.148484
C37   C     C_R   0.041554 0.528499 0.384795 0.141842
C38   C     C_R   0.957772 0.472507 0.615274 0.128121
C39   C     C_R   0.498512 0.050310 0.384518 0.149723
C40   C     C_R   0.505722 0.949976 0.615506 0.148493
C41   C     C_R   0.500000 1.000000 0.666084 0.822375
C42   C     C_R   0.500000 1.000000 0.333922 0.823290
C43   C     C_R   1.000000 0.500000 0.666030 0.819352
C44   C     C_R   1.000000 0.500000 0.333986 0.823971
C45   C     C_R   1.000000 0.500000 0.166030 0.819376
C46   C     C_R   0.000000 0.500000 0.833987 0.824014
C47   C     C_R   0.500000 1.000000 0.166083 0.822516
C48   C     C_R   0.500000 0.000000 0.833921 0.823253
C49   C     C_R   0.605667 0.894335 0.749999 0.864007
C50   C     C_R   0.394008 0.105856 0.249945 0.846060
C51   C     C_R   0.105954 0.605845 0.749948 0.848263
C52   C     C_R   0.893942 0.393984 0.250014 0.864076
C53   C     C_R   0.394333 0.105665 0.749999 0.864009
C54   C     C_R   0.605993 0.894144 0.249945 0.846058
C55   C     C_R   0.894047 0.394155 0.749948 0.848271
C56   C     C_R   0.106057 0.606016 0.250014 0.863970
C57   C     C_R   0.394335 0.894333 0.249999 0.864014
C58   C     C_R   0.605854 0.105987 0.749947 0.846055
C59   C     C_R   0.894159 0.605948 0.249948 0.848367
C60   C     C_R   0.106017 0.393942 0.750014 0.864008
C61   C     C_R   0.605665 0.105667 0.249999 0.864062
C62   C     C_R   0.394147 0.894014 0.749947 0.846067
C63   C     C_R   0.105841 0.394051 0.249948 0.848355
C64   C     C_R   0.893983 0.606058 0.750014 0.864014
C65   C     C_R   0.500002 0.000001 0.868309 -0.088349
C66   C     C_R   0.500002 0.999999 0.131705 -0.089561
C67   C     C_R   0.000000 0.500001 0.868456 -0.102365
C68   C     C_R   1.000000 0.500000 0.131591 -0.106060
C69   C     C_R   0.999998 0.500000 0.368455 -0.102393
C70   C     C_R   0.999999 0.499999 0.631591 -0.106068
C71   C     C_R   0.500001 1.000000 0.368310 -0.088358
C72   C     C_R   0.500000 0.000000 0.631706 -0.089658
C73   C     C_R   0.999996 0.499997 0.531576 0.301607
C74   C     C_R   0.999995 0.499997 0.468477 0.302955
C75   C     C_R   0.499999 0.000001 0.531624 0.301820
C76   C     C_R   0.500000 0.000001 0.468437 0.301671
C77   C     C_R   0.500008 0.000001 0.031622 0.301781
C78   C     C_R   0.500008 0.000002 0.968434 0.301620
C79   C     C_R   1.000000 0.500001 0.031576 0.301614
C80   C     C_R   0.000000 0.500001 0.968478 0.302947
C81   C     C_R   0.200296 0.637353 0.763315 0.471628
C82   C     C_R   0.798486 0.362692 0.238050 0.457870
C83   C     C_R   0.367527 0.203271 0.750028 0.473572
C84   C     C_R   0.650514 0.812644 0.225445 0.484213
C85   C     C_R   0.799692 0.362664 0.763292 0.471637
C86   C     C_R   0.201499 0.637323 0.238023 0.457895
C87   C     C_R   0.632472 0.796728 0.750025 0.473579
C88   C     C_R   0.349468 0.187336 0.225437 0.484246
C89   C     C_R   0.800426 0.638332 0.235899 0.470279
C90   C     C_R   0.201375 0.362510 0.762066 0.458950
C91   C     C_R   0.632412 0.203292 0.249999 0.473222
C92   C     C_R   0.350348 0.811503 0.773716 0.486147
C93   C     C_R   0.199565 0.361657 0.235883 0.470269
C94   C     C_R   0.798623 0.637488 0.762063 0.458906
C95   C     C_R   0.367586 0.796707 0.249975 0.473227
C96   C     C_R   0.649627 0.188527 0.773702 0.486123
C97   C     C_R   0.703270 0.132472 0.250005 0.473488
C98   C     C_R   0.312895 0.849273 0.725332 0.484311
C99   C     C_R   0.862801 0.700405 0.263118 0.471649
C100  C     C_R   0.137328 0.298503 0.738015 0.458089
C101  C     C_R   0.296729 0.867528 0.250026 0.473502
C102  C     C_R   0.687138 0.150698 0.725348 0.484299
C103  C     C_R   0.137215 0.299607 0.263137 0.471655
C104  C     C_R   0.862672 0.701497 0.738017 0.458135
C105  C     C_R   0.296706 0.132413 0.749973 0.473282
C106  C     C_R   0.688766 0.850576 0.273581 0.486052
C107  C     C_R   0.138480 0.699463 0.735713 0.470221
C108  C     C_R   0.862530 0.298610 0.262036 0.458696
C109  C     C_R   0.703293 0.867586 0.749975 0.473273
C110  C     C_R   0.311258 0.149445 0.273593 0.486045
C111  C     C_R   0.861541 0.300519 0.735739 0.470226
C112  C     C_R   0.137483 0.701379 0.262058 0.458666
C113  C     C_R   0.148820 0.648174 0.749690 -0.338776
C114  C     C_R   0.851072 0.351179 0.250027 -0.329567
C115  C     C_R   0.352107 0.147865 0.750001 -0.316283
C116  C     C_R   0.648984 0.851841 0.249670 -0.345052
C117  C     C_R   0.851183 0.351826 0.749691 -0.338758
C118  C     C_R   0.148927 0.648822 0.250026 -0.329615
C119  C     C_R   0.647892 0.852135 0.750001 -0.316275
C120  C     C_R   0.351018 0.148159 0.249671 -0.345026
C121  C     C_R   0.851839 0.648808 0.249687 -0.338628
C122  C     C_R   0.148822 0.351071 0.750026 -0.329595
C123  C     C_R   0.647864 0.147892 0.250002 -0.316243
C124  C     C_R   0.351848 0.851035 0.749677 -0.344740
C125  C     C_R   0.148163 0.351193 0.249688 -0.338640
C126  C     C_R   0.851177 0.648928 0.750025 -0.329591
C127  C     C_R   0.352135 0.852108 0.250001 -0.316287
C128  C     C_R   0.648154 0.148966 0.749677 -0.344777
N1    N     N_R   0.517286 0.955321 0.984475 -0.167774
N2    N     N_R   0.482717 0.044676 0.015592 -0.168139
N3    N     N_R   0.024380 0.541250 0.984479 -0.168221
N4    N     N_R   0.975611 0.458758 0.015571 -0.169052
N5    N     N_R   0.482731 0.044682 0.984476 -0.167778
N6    N     N_R   0.517300 0.955326 0.015591 -0.168141
N7    N     N_R   0.975620 0.458753 0.984478 -0.168224
N8    N     N_R   0.024388 0.541244 0.015571 -0.169055
N9    N     N_R   0.041244 0.475618 0.484478 -0.168239
N10   N     N_R   0.958752 0.524384 0.515571 -0.169060
N11   N     N_R   0.544349 0.018114 0.484479 -0.167813
N12   N     N_R   0.455657 0.981873 0.515594 -0.168166
N13   N     N_R   0.958747 0.524375 0.484478 -0.168241
N14   N     N_R   0.041239 0.475610 0.515570 -0.169059
N15   N     N_R   0.455651 0.981887 0.484478 -0.167807
N16   N     N_R   0.544342 0.018129 0.515595 -0.168173
C129  C     C_R   0.181528 0.737293 0.732232 -0.137581
C130  C     C_R   0.824087 0.256038 0.258098 -0.135445
C131  C     C_R   0.255795 0.172975 0.747643 -0.140153
C132  C     C_R   0.733455 0.814456 0.271143 -0.143340
C133  C     C_R   0.818499 0.262682 0.732258 -0.137588
C134  C     C_R   0.175922 0.743955 0.258122 -0.135457
C135  C     C_R   0.744204 0.827025 0.747644 -0.140154
C136  C     C_R   0.266569 0.185564 0.271158 -0.143344
C137  C     C_R   0.820182 0.738805 0.266247 -0.138122
C138  C     C_R   0.175808 0.255928 0.741913 -0.135313
C139  C     C_R   0.744159 0.173054 0.252344 -0.140240
C140  C     C_R   0.268485 0.812717 0.727370 -0.143309
C141  C     C_R   0.179838 0.261211 0.266266 -0.138118
C142  C     C_R   0.824191 0.744071 0.741914 -0.135314
C143  C     C_R   0.255842 0.826944 0.252367 -0.140251
C144  C     C_R   0.731548 0.187253 0.727391 -0.143311
C145  C     C_R   0.672972 0.244208 0.247676 -0.140135
C146  C     C_R   0.314242 0.766798 0.771313 -0.143303
C147  C     C_R   0.762554 0.681340 0.232410 -0.137607
C148  C     C_R   0.243952 0.324074 0.758130 -0.135456
C149  C     C_R   0.327025 0.755795 0.247648 -0.140151
C150  C     C_R   0.685735 0.233230 0.771296 -0.143306
C151  C     C_R   0.237435 0.318646 0.232396 -0.137606
C152  C     C_R   0.756046 0.675924 0.758126 -0.135456
C153  C     C_R   0.326943 0.244156 0.752372 -0.140257
C154  C     C_R   0.687082 0.768248 0.227514 -0.143350
C155  C     C_R   0.238648 0.680015 0.766446 -0.138105
C156  C     C_R   0.755917 0.324205 0.241949 -0.135299
C157  C     C_R   0.673055 0.755843 0.752368 -0.140254
C158  C     C_R   0.312902 0.231733 0.227503 -0.143343
C159  C     C_R   0.761335 0.320006 0.766424 -0.138108
C160  C     C_R   0.244072 0.675805 0.241920 -0.135312
C161  C     C_R   0.230392 0.728877 0.749323 -0.167470
C162  C     C_R   0.769623 0.269724 0.250007 -0.164740
C163  C     C_R   0.271061 0.228862 0.750002 -0.170142
C164  C     C_R   0.730542 0.771077 0.249309 -0.171056
C165  C     C_R   0.769614 0.271122 0.749325 -0.167470
C166  C     C_R   0.230376 0.730278 0.250004 -0.164731
C167  C     C_R   0.728938 0.771137 0.750001 -0.170143
C168  C     C_R   0.269463 0.228924 0.249311 -0.171063
C169  C     C_R   0.771147 0.730377 0.249311 -0.167494
C170  C     C_R   0.230278 0.269622 0.750005 -0.164808
C171  C     C_R   0.728863 0.228940 0.250004 -0.170138
C172  C     C_R   0.271090 0.769484 0.749321 -0.171133
C173  C     C_R   0.228858 0.269624 0.249314 -0.167495
C174  C     C_R   0.769721 0.730376 0.750003 -0.164808
C175  C     C_R   0.271136 0.771061 0.250002 -0.170130
C176  C     C_R   0.728916 0.230515 0.749323 -0.171123
C177  C     C_R   0.176449 0.783710 0.712660 0.422858
C178  C     C_R   0.838816 0.200561 0.262409 0.416825
C179  C     C_R   0.199956 0.159040 0.743707 0.440201
C180  C     C_R   0.780199 0.819997 0.290395 0.425092
C181  C     C_R   0.823604 0.216237 0.712710 0.422870
C182  C     C_R   0.161198 0.799427 0.262461 0.416811
C183  C     C_R   0.800043 0.840959 0.743711 0.440197
C184  C     C_R   0.219843 0.180043 0.290426 0.425100
C185  C     C_R   0.825818 0.785752 0.285352 0.424355
C186  C     C_R   0.161111 0.200436 0.737596 0.417370
C187  C     C_R   0.800002 0.159144 0.256288 0.440321
C188  C     C_R   0.222241 0.817757 0.707681 0.426772
C189  C     C_R   0.174220 0.214283 0.285387 0.424351
C190  C     C_R   0.838889 0.799564 0.737600 0.417380
C191  C     C_R   0.200004 0.840851 0.256338 0.440305
C192  C     C_R   0.777819 0.182184 0.707726 0.426748
C193  C     C_R   0.659032 0.300053 0.243777 0.440251
C194  C     C_R   0.319569 0.720260 0.790748 0.425254
C195  C     C_R   0.715928 0.676059 0.213019 0.422975
C196  C     C_R   0.299424 0.338796 0.762477 0.416914
C197  C     C_R   0.340960 0.699955 0.243721 0.440225
C198  C     C_R   0.680382 0.279794 0.790707 0.425231
C199  C     C_R   0.284041 0.323908 0.212989 0.422962
C200  C     C_R   0.700573 0.661202 0.762469 0.416905
C201  C     C_R   0.340849 0.299992 0.756353 0.440279
C202  C     C_R   0.681826 0.721797 0.208004 0.426605
C203  C     C_R   0.285386 0.674584 0.785738 0.424239
C204  C     C_R   0.700419 0.338909 0.237670 0.417280
C205  C     C_R   0.659149 0.700006 0.756345 0.440287
C206  C     C_R   0.318138 0.278166 0.207978 0.426629
C207  C     C_R   0.714571 0.325463 0.785692 0.424250
C208  C     C_R   0.299565 0.661107 0.237612 0.417284
O53   O     O_3   0.128605 0.792498 0.695963 -0.567237
C209  C     C_3   0.102914 0.840930 0.706534 -0.232676
H1    H     H_    0.119397 0.877174 0.694075 0.197361
H2    H     H_    0.106437 0.847012 0.732282 0.121974
H3    H     H_    0.058654 0.838287 0.700954 0.177244
O54   O     O_3   0.892903 0.186965 0.268712 -0.583496
C210  C     C_3   0.896882 0.157521 0.297097 -0.240465
H4    H     H_    0.897074 0.112862 0.292448 0.200806
H5    H     H_    0.864053 0.167660 0.314263 0.130098
H6    H     H_    0.936585 0.167739 0.308240 0.169758
O55   O     O_3   0.183762 0.104705 0.743825 -0.551736
C211  C     C_3   0.153786 0.093838 0.771393 -0.271389
H7    H     H_    0.110805 0.107940 0.769103 0.188764
H8    H     H_    0.172757 0.112421 0.792572 0.123483
H9    H     H_    0.152725 0.048915 0.775057 0.178628
O56   O     O_3   0.783388 0.862483 0.311815 -0.557876
C212  C     C_3   0.785539 0.841206 0.342526 -0.218223
H10   H     H_    0.828476 0.832899 0.349488 0.193202
H11   H     H_    0.760268 0.803617 0.345706 0.114914
H12   H     H_    0.769302 0.872617 0.358785 0.181486
O57   O     O_3   0.871472 0.207422 0.696039 -0.567224
C213  C     C_3   0.897151 0.159012 0.706650 -0.232710
H13   H     H_    0.880679 0.122742 0.694209 0.197344
H14   H     H_    0.893602 0.152981 0.732401 0.121968
H15   H     H_    0.941417 0.161641 0.701083 0.177297
O58   O     O_3   0.107120 0.813017 0.268791 -0.583489
C214  C     C_3   0.103179 0.842422 0.297192 -0.240394
H16   H     H_    0.102988 0.887087 0.292565 0.200781
H17   H     H_    0.136027 0.832252 0.314341 0.130068
H18   H     H_    0.063488 0.832194 0.308346 0.169838
O59   O     O_3   0.816237 0.895294 0.743831 -0.551731
C215  C     C_3   0.846212 0.906159 0.771400 -0.271372
H19   H     H_    0.889193 0.892057 0.769111 0.188770
H20   H     H_    0.827238 0.887575 0.792578 0.123481
H21   H     H_    0.847273 0.951082 0.775065 0.178630
O60   O     O_3   0.216674 0.137579 0.311861 -0.557876
C216  C     C_3   0.214560 0.158889 0.342566 -0.218249
H22   H     H_    0.171632 0.167213 0.349539 0.193205
H23   H     H_    0.239843 0.196475 0.345725 0.114916
H24   H     H_    0.230806 0.127491 0.358830 0.181492
O61   O     O_3   0.874075 0.794979 0.301565 -0.565373
C217  C     C_3   0.899783 0.842724 0.290041 -0.236715
H25   H     H_    0.883219 0.879752 0.301691 0.196563
H26   H     H_    0.896351 0.847111 0.264178 0.121927
H27   H     H_    0.944020 0.840469 0.295732 0.179300
O62   O     O_3   0.107033 0.186797 0.731300 -0.582784
C218  C     C_3   0.103068 0.157330 0.702920 -0.242020
H28   H     H_    0.103012 0.112671 0.707567 0.201380
H29   H     H_    0.135824 0.167573 0.685729 0.130328
H30   H     H_    0.063306 0.167427 0.691809 0.168331
O63   O     O_3   0.816219 0.104817 0.256192 -0.551236
C219  C     C_3   0.846227 0.093937 0.228637 -0.271421
H31   H     H_    0.889199 0.108061 0.230937 0.188221
H32   H     H_    0.827269 0.112491 0.207447 0.123299
H33   H     H_    0.847310 0.049010 0.224987 0.178772
O64   O     O_3   0.219621 0.859576 0.685827 -0.557013
C220  C     C_3   0.219195 0.837274 0.655336 -0.225596
H34   H     H_    0.176853 0.826982 0.648056 0.192578
H35   H     H_    0.246065 0.800656 0.652836 0.115269
H36   H     H_    0.234655 0.868783 0.638892 0.182549
O65   O     O_3   0.125978 0.205073 0.301618 -0.565384
C221  C     C_3   0.100260 0.157315 0.290119 -0.236725
H37   H     H_    0.116834 0.120301 0.301779 0.196580
H38   H     H_    0.103669 0.152897 0.264258 0.121942
H39   H     H_    0.056028 0.159577 0.295822 0.179215
O66   O     O_3   0.892968 0.813204 0.731306 -0.582779
C222  C     C_3   0.896935 0.842672 0.702927 -0.242045
H40   H     H_    0.896991 0.887331 0.707575 0.201393
H41   H     H_    0.864180 0.832430 0.685734 0.130333
H42   H     H_    0.936697 0.832576 0.691816 0.168288
O67   O     O_3   0.183788 0.895180 0.256271 -0.551233
C223  C     C_3   0.153736 0.906093 0.228736 -0.271374
H43   H     H_    0.110763 0.891981 0.231056 0.188209
H44   H     H_    0.172651 0.887554 0.207530 0.123272
H45   H     H_    0.152660 0.951024 0.225101 0.178778
O68   O     O_3   0.780469 0.140331 0.685893 -0.557015
C224  C     C_3   0.780948 0.162586 0.655391 -0.225534
H46   H     H_    0.823304 0.172851 0.648127 0.192575
H47   H     H_    0.754094 0.199209 0.652859 0.115260
H48   H     H_    0.765501 0.131057 0.638956 0.182538
O69   O     O_3   0.604698 0.316248 0.243935 -0.551677
C225  C     C_3   0.593879 0.346163 0.271530 -0.271520
H49   H     H_    0.607996 0.389143 0.269269 0.188726
H50   H     H_    0.612479 0.327133 0.292686 0.123504
H51   H     H_    0.548960 0.347233 0.275213 0.178651
O70   O     O_3   0.361804 0.717305 0.812339 -0.557849
C226  C     C_3   0.340162 0.715578 0.842976 -0.218537
H52   H     H_    0.331603 0.672755 0.850064 0.193211
H53   H     H_    0.302636 0.741033 0.845916 0.114986
H54   H     H_    0.371443 0.731879 0.859295 0.181554
O71   O     O_3   0.706948 0.628038 0.196524 -0.567168
C227  C     C_3   0.658667 0.602444 0.207389 -0.233030
H55   H     H_    0.622246 0.618835 0.195058 0.197262
H56   H     H_    0.652959 0.606180 0.233155 0.121954
H57   H     H_    0.661222 0.558139 0.201914 0.177581
O72   O     O_3   0.313011 0.392871 0.768818 -0.583473
C228  C     C_3   0.342401 0.396798 0.797225 -0.240578
H58   H     H_    0.387070 0.396984 0.792606 0.200842
H59   H     H_    0.332216 0.363946 0.814368 0.130115
H60   H     H_    0.332174 0.436487 0.808381 0.169530
O73   O     O_3   0.395295 0.683760 0.243847 -0.551666
C229  C     C_3   0.406153 0.653797 0.271420 -0.271429
H61   H     H_    0.392049 0.610816 0.269136 0.188718
H62   H     H_    0.387566 0.672780 0.292594 0.123468
H63   H     H_    0.451076 0.652736 0.275088 0.178660
O74   O     O_3   0.638116 0.282779 0.812277 -0.557850
C230  C     C_3   0.659713 0.284556 0.842924 -0.218499
H64   H     H_    0.668250 0.327392 0.849997 0.193207
H65   H     H_    0.697242 0.259115 0.845894 0.114981
H66   H     H_    0.628412 0.268270 0.859235 0.181550
O75   O     O_3   0.293004 0.371914 0.196476 -0.567173
C231  C     C_3   0.341300 0.397515 0.207314 -0.232972
H67   H     H_    0.377704 0.381118 0.194970 0.197268
H68   H     H_    0.347045 0.393796 0.233078 0.121949
H69   H     H_    0.338736 0.441817 0.201832 0.177600
O76   O     O_3   0.686985 0.607126 0.768807 -0.583475
C232  C     C_3   0.657590 0.603194 0.797212 -0.240560
H70   H     H_    0.612923 0.603008 0.792590 0.200831
H71   H     H_    0.667772 0.636044 0.814356 0.130112
H72   H     H_    0.667817 0.563504 0.808366 0.169565
O77   O     O_3   0.395178 0.316209 0.756295 -0.551294
C233  C     C_3   0.406102 0.346275 0.728766 -0.271304
H73   H     H_    0.391994 0.389247 0.731093 0.188265
H74   H     H_    0.387567 0.327373 0.707554 0.123279
H75   H     H_    0.451034 0.347349 0.725135 0.178747
O78   O     O_3   0.639758 0.718946 0.186315 -0.557041
C234  C     C_3   0.661707 0.718107 0.155743 -0.225235
H76   H     H_    0.671756 0.675646 0.148578 0.192600
H77   H     H_    0.698394 0.744810 0.153005 0.115169
H78   H     H_    0.630063 0.733501 0.139363 0.182502
O79   O     O_3   0.294425 0.626502 0.802156 -0.565429
C235  C     C_3   0.342333 0.600693 0.790927 -0.236284
H79   H     H_    0.379192 0.617347 0.802709 0.196677
H80   H     H_    0.347100 0.603907 0.765077 0.121939
H81   H     H_    0.339989 0.556504 0.796727 0.178887
O80   O     O_3   0.686771 0.393000 0.231414 -0.582821
C236  C     C_3   0.657246 0.397019 0.203057 -0.241892
H82   H     H_    0.612598 0.397085 0.207736 0.201348
H83   H     H_    0.667438 0.364285 0.185842 0.130333
H84   H     H_    0.667335 0.436793 0.191958 0.168521
O81   O     O_3   0.604820 0.683790 0.756283 -0.551300
C237  C     C_3   0.593900 0.653729 0.728752 -0.271336
H85   H     H_    0.608009 0.610756 0.731076 0.188264
H86   H     H_    0.612437 0.672636 0.707543 0.123287
H87   H     H_    0.548968 0.652653 0.725120 0.178744
O82   O     O_3   0.360183 0.280996 0.186273 -0.557039
C238  C     C_3   0.338202 0.281800 0.155708 -0.225271
H88   H     H_    0.328137 0.324251 0.148533 0.192602
H89   H     H_    0.301517 0.255086 0.152992 0.115174
H90   H     H_    0.369831 0.266395 0.139323 0.182504
O83   O     O_3   0.705508 0.373568 0.802085 -0.565420
C239  C     C_3   0.657620 0.399364 0.790819 -0.236317
H91   H     H_    0.620740 0.382721 0.802585 0.196660
H92   H     H_    0.652900 0.396122 0.764968 0.121936
H93   H     H_    0.659953 0.443559 0.796606 0.178929
O84   O     O_3   0.313206 0.607025 0.231325 -0.582811
C240  C     C_3   0.342686 0.603046 0.202950 -0.241868
H94   H     H_    0.387342 0.602985 0.207605 0.201341
H95   H     H_    0.332457 0.635798 0.185754 0.130310
H96   H     H_    0.332588 0.563283 0.191842 0.168548
O85   O     O_3   0.212290 0.585619 0.774610 -0.525864
C241  C     C_3   0.232455 0.553548 0.749664 -0.166431
H97   H     H_    0.266566 0.574122 0.737026 0.103713
H98   H     H_    0.199299 0.543071 0.732912 0.126814
H99   H     H_    0.248728 0.514716 0.759333 0.232934
O86   O     O_3   0.788141 0.412807 0.224203 -0.551516
C242  C     C_3   0.794416 0.406898 0.191535 -0.179547
H100  H     H_    0.766284 0.375427 0.181826 0.121408
H101  H     H_    0.837261 0.396238 0.185200 0.145916
H102  H     H_    0.784447 0.446516 0.180229 0.188826
O87   O     O_3   0.422555 0.217131 0.749514 -0.514861
C243  C     C_3   0.442027 0.213956 0.718442 -0.223225
H103  H     H_    0.413544 0.233112 0.701307 0.119793
H104  H     H_    0.450142 0.170903 0.711586 0.118990
H105  H     H_    0.481454 0.236317 0.717027 0.180368
O88   O     O_3   0.614904 0.816662 0.200379 -0.507266
C244  C     C_3   0.638503 0.851751 0.177863 -0.211913
H106  H     H_    0.679577 0.837148 0.170339 0.118479
H107  H     H_    0.641711 0.894416 0.186722 0.117643
H108  H     H_    0.611708 0.852452 0.156936 0.187088
O89   O     O_3   0.787686 0.414412 0.774563 -0.525825
C245  C     C_3   0.767565 0.446460 0.749595 -0.166512
H109  H     H_    0.733474 0.425875 0.736945 0.103713
H110  H     H_    0.800750 0.456918 0.732858 0.126748
H111  H     H_    0.751279 0.485302 0.759243 0.232944
O90   O     O_3   0.211829 0.587227 0.224150 -0.551462
C246  C     C_3   0.205499 0.593175 0.191488 -0.179568
H112  H     H_    0.233608 0.624663 0.181777 0.121397
H113  H     H_    0.162641 0.603834 0.185180 0.145877
H114  H     H_    0.215457 0.553572 0.180161 0.188783
O91   O     O_3   0.577444 0.782869 0.749509 -0.514875
C247  C     C_3   0.557973 0.786048 0.718436 -0.223274
H115  H     H_    0.586457 0.766897 0.701301 0.119806
H116  H     H_    0.549855 0.829102 0.711584 0.118997
H117  H     H_    0.518547 0.763686 0.717019 0.180353
O92   O     O_3   0.385058 0.183296 0.200362 -0.507268
C248  C     C_3   0.361445 0.148182 0.177864 -0.212000
H118  H     H_    0.320361 0.162769 0.170347 0.118491
H119  H     H_    0.358254 0.105524 0.186737 0.117623
H120  H     H_    0.388221 0.147466 0.156929 0.187093
O93   O     O_3   0.788018 0.586547 0.224824 -0.528318
C249  C     C_3   0.767055 0.555139 0.249827 -0.168451
H121  H     H_    0.732762 0.576206 0.262030 0.105360
H122  H     H_    0.799726 0.544829 0.266920 0.128265
H123  H     H_    0.750797 0.516189 0.240301 0.231532
O94   O     O_3   0.211609 0.412398 0.776198 -0.550461
C250  C     C_3   0.204791 0.405975 0.808797 -0.186487
H124  H     H_    0.233465 0.375045 0.818540 0.123835
H125  H     H_    0.162100 0.394195 0.814806 0.141167
H126  H     H_    0.213581 0.445675 0.820325 0.189891
O95   O     O_3   0.577375 0.217120 0.250502 -0.515286
C251  C     C_3   0.557857 0.213862 0.281562 -0.221698
H127  H     H_    0.586361 0.232866 0.298740 0.119550
H128  H     H_    0.549618 0.170800 0.288347 0.118615
H129  H     H_    0.518485 0.236316 0.282992 0.180415
O96   O     O_3   0.385337 0.815721 0.799050 -0.506824
C252  C     C_3   0.360536 0.849880 0.821603 -0.218719
H130  H     H_    0.319806 0.834043 0.828917 0.120891
H131  H     H_    0.356208 0.892525 0.812864 0.118221
H132  H     H_    0.387070 0.851071 0.842630 0.186670
O97   O     O_3   0.211963 0.413432 0.224790 -0.528307
C253  C     C_3   0.232954 0.444861 0.249776 -0.168401
H133  H     H_    0.267272 0.423810 0.261966 0.105376
H134  H     H_    0.200306 0.455170 0.266884 0.128242
H135  H     H_    0.249185 0.483810 0.240236 0.231509
O98   O     O_3   0.788387 0.587598 0.776191 -0.550427
C254  C     C_3   0.795199 0.594017 0.808790 -0.186363
H136  H     H_    0.766523 0.624946 0.818534 0.123805
H137  H     H_    0.837889 0.605796 0.814804 0.141141
H138  H     H_    0.786407 0.554316 0.820316 0.189909
O99   O     O_3   0.422623 0.782878 0.250460 -0.515246
C255  C     C_3   0.442160 0.786094 0.281517 -0.221635
H139  H     H_    0.413678 0.767041 0.298690 0.119543
H140  H     H_    0.450377 0.829149 0.288327 0.118582
H141  H     H_    0.481547 0.763660 0.282926 0.180428
O100  O     O_3   0.614609 0.184341 0.799025 -0.506822
C256  C     C_3   0.639390 0.150217 0.821603 -0.218611
H142  H     H_    0.680104 0.166078 0.828929 0.120877
H143  H     H_    0.643744 0.107563 0.812883 0.118230
H144  H     H_    0.612826 0.149042 0.842618 0.186668
O101  O     O_3   0.717128 0.077445 0.249475 -0.514812
C257  C     C_3   0.713908 0.057984 0.218402 -0.222765
H145  H     H_    0.733002 0.086490 0.201258 0.119640
H146  H     H_    0.670848 0.049831 0.211575 0.118920
H147  H     H_    0.736301 0.018578 0.216966 0.180474
O102  O     O_3   0.317152 0.884662 0.700175 -0.507331
C258  C     C_3   0.352552 0.860930 0.677863 -0.212455
H148  H     H_    0.338187 0.819709 0.670451 0.118418
H149  H     H_    0.395143 0.858004 0.686868 0.117583
H150  H     H_    0.353352 0.887478 0.656834 0.187092
O103  O     O_3   0.914638 0.712476 0.274234 -0.525555
C259  C     C_3   0.946548 0.732278 0.249127 -0.166897
H151  H     H_    0.925914 0.766241 0.236391 0.103699
H152  H     H_    0.956874 0.698894 0.232493 0.126214
H153  H     H_    0.985466 0.748637 0.258633 0.233003
O104  O     O_3   0.087237 0.288177 0.724135 -0.551679
C260  C     C_3   0.093196 0.294522 0.691475 -0.180295
H154  H     H_    0.124690 0.266419 0.681763 0.121578
H155  H     H_    0.103854 0.337383 0.685175 0.146084
H156  H     H_    0.053598 0.284565 0.680142 0.188655
O105  O     O_3   0.282870 0.922556 0.249515 -0.514789
C261  C     C_3   0.286050 0.942037 0.218445 -0.222754
H157  H     H_    0.266911 0.913552 0.201305 0.119647
H158  H     H_    0.329103 0.950170 0.211597 0.118892
H159  H     H_    0.263676 0.981456 0.217030 0.180469
O106  O     O_3   0.682911 0.115281 0.700202 -0.507327
C262  C     C_3   0.647550 0.138997 0.677863 -0.212371
H160  H     H_    0.661940 0.180203 0.670441 0.118401
H161  H     H_    0.604947 0.141948 0.686847 0.117610
H162  H     H_    0.646772 0.112422 0.656845 0.187086
O107  O     O_3   0.085386 0.287540 0.274265 -0.525625
C263  C     C_3   0.053467 0.267701 0.249170 -0.166859
H163  H     H_    0.074107 0.233738 0.236437 0.103683
H164  H     H_    0.043114 0.301068 0.232531 0.126344
H165  H     H_    0.014565 0.251331 0.258690 0.233015
O108  O     O_3   0.912764 0.711824 0.724139 -0.551720
C264  C     C_3   0.906808 0.705482 0.691478 -0.180428
H166  H     H_    0.875316 0.733585 0.681766 0.121611
H167  H     H_    0.896151 0.662621 0.685176 0.146122
H168  H     H_    0.946407 0.715440 0.680146 0.188636
O109  O     O_3   0.282876 0.077377 0.750461 -0.515343
C265  C     C_3   0.286088 0.057847 0.781520 -0.222112
H169  H     H_    0.267019 0.086327 0.798688 0.119688
H170  H     H_    0.329143 0.049646 0.788335 0.118678
H171  H     H_    0.263665 0.018454 0.782929 0.180319
O110  O     O_3   0.684793 0.885787 0.298826 -0.506765
C266  C     C_3   0.650966 0.861115 0.321587 -0.218203
H172  H     H_    0.667046 0.820536 0.328999 0.120934
H173  H     H_    0.608251 0.856506 0.313006 0.118323
H174  H     H_    0.649882 0.887889 0.342516 0.186619
O111  O     O_3   0.086799 0.711785 0.724452 -0.528623
C267  C     C_3   0.055218 0.733095 0.749287 -0.167941
H175  H     H_    0.076211 0.767543 0.761389 0.105396
H176  H     H_    0.044772 0.700657 0.766499 0.128797
H177  H     H_    0.016345 0.749242 0.739598 0.231395
O112  O     O_3   0.912443 0.288356 0.276133 -0.550268
C268  C     C_3   0.906073 0.295106 0.308740 -0.185617
H178  H     H_    0.875158 0.266412 0.318481 0.123620
H179  H     H_    0.894305 0.337785 0.314785 0.140979
H180  H     H_    0.945792 0.286293 0.320241 0.190033
O113  O     O_3   0.717123 0.922622 0.750464 -0.515333
C269  C     C_3   0.713910 0.942150 0.781524 -0.222072
H181  H     H_    0.732976 0.913667 0.798692 0.119676
H182  H     H_    0.670855 0.950352 0.788338 0.118677
H183  H     H_    0.736334 0.981542 0.782935 0.180332
O114  O     O_3   0.315252 0.114253 0.298846 -0.506767
C270  C     C_3   0.349106 0.138938 0.321589 -0.218248
H184  H     H_    0.333043 0.179528 0.328993 0.120943
H185  H     H_    0.391814 0.143527 0.312994 0.118316
H186  H     H_    0.350202 0.112184 0.342526 0.186620
O115  O     O_3   0.913236 0.288187 0.724501 -0.528574
C271  C     C_3   0.944797 0.266926 0.749359 -0.168001
H187  H     H_    0.923798 0.232497 0.761474 0.105390
H188  H     H_    0.955225 0.299396 0.766554 0.128715
H189  H     H_    0.983681 0.250766 0.739690 0.231413
O116  O     O_3   0.087589 0.711618 0.276181 -0.550157
C272  C     C_3   0.094000 0.704818 0.308782 -0.185519
H190  H     H_    0.124927 0.733498 0.318525 0.123592
H191  H     H_    0.105778 0.662130 0.314801 0.140904
H192  H     H_    0.054296 0.713613 0.320304 0.190011
C273  C     C_3   0.396904 0.999234 0.865672 -0.929956
H193  H     H_    0.359092 0.000358 0.879841 0.247405
H194  H     H_    0.395868 0.035858 0.850309 0.234981
H195  H     H_    0.395094 0.961973 0.850888 0.224367
C274  C     C_3   0.602701 0.009333 0.134369 -0.927697
H196  H     H_    0.640506 0.011007 0.120214 0.246863
H197  H     H_    0.601601 0.046876 0.148983 0.241824
H198  H     H_    0.606590 0.973137 0.149901 0.218445
C275  C     C_3   0.056392 0.412938 0.866507 -0.885607
H199  H     H_    0.068243 0.377298 0.880942 0.239188
H200  H     H_    0.028221 0.396632 0.848387 0.217729
H201  H     H_    0.093832 0.429079 0.855097 0.249050
C276  C     C_3   0.946018 0.588531 0.133601 -0.862591
H202  H     H_    0.934606 0.624261 0.119121 0.238834
H203  H     H_    0.908503 0.573399 0.145400 0.265779
H204  H     H_    0.974993 0.604384 0.151438 0.211316
C277  C     C_3   0.603100 0.000776 0.865668 -0.929941
H205  H     H_    0.640913 0.999652 0.879836 0.247406
H206  H     H_    0.604136 0.964154 0.850303 0.234975
H207  H     H_    0.604907 0.038039 0.850887 0.224368
C278  C     C_3   0.397303 0.990663 0.134364 -0.927686
H208  H     H_    0.359500 0.988990 0.120207 0.246863
H209  H     H_    0.398402 0.953120 0.148977 0.241833
H210  H     H_    0.393412 0.026859 0.149896 0.218442
C279  C     C_3   0.943609 0.587064 0.866506 -0.885587
H211  H     H_    0.971781 0.603369 0.848387 0.217739
H212  H     H_    0.906169 0.570922 0.855096 0.249044
H213  H     H_    0.931759 0.622704 0.880942 0.239189
C280  C     C_3   0.053982 0.411469 0.133600 -0.862532
H214  H     H_    0.025007 0.395616 0.151437 0.211324
H215  H     H_    0.065393 0.375740 0.119120 0.238833
H216  H     H_    0.091496 0.426601 0.145399 0.265790
C281  C     C_3   0.912916 0.443637 0.366503 -0.885650
H217  H     H_    0.877274 0.431791 0.380939 0.239199
H218  H     H_    0.896617 0.471818 0.348387 0.217691
H219  H     H_    0.929046 0.406196 0.355089 0.249039
C282  C     C_3   0.088514 0.554011 0.633599 -0.862120
H220  H     H_    0.124241 0.565430 0.619119 0.238820
H221  H     H_    0.073371 0.591523 0.645395 0.265922
H222  H     H_    0.104374 0.525043 0.651437 0.211311
C283  C     C_3   0.501827 0.896918 0.365676 -0.930102
H223  H     H_    0.500997 0.859104 0.379849 0.247432
H224  H     H_    0.465245 0.895555 0.350288 0.234378
H225  H     H_    0.539131 0.895442 0.350919 0.224900
C284  C     C_3   0.489267 0.102566 0.634365 -0.927169
H226  H     H_    0.487173 0.140342 0.620204 0.246806
H227  H     H_    0.451710 0.101012 0.648951 0.242683
H228  H     H_    0.525384 0.106903 0.649922 0.217839
C285  C     C_3   0.087078 0.556365 0.366507 -0.885698
H229  H     H_    0.122720 0.568210 0.380944 0.239199
H230  H     H_    0.103378 0.528187 0.348390 0.217696
H231  H     H_    0.070948 0.593807 0.355094 0.249031
C286  C     C_3   0.911483 0.445989 0.633600 -0.862177
H232  H     H_    0.875755 0.434570 0.619121 0.238822
H233  H     H_    0.926626 0.408477 0.645397 0.265904
H234  H     H_    0.895624 0.474957 0.651439 0.211311
C287  C     C_3   0.498182 0.103082 0.365676 -0.930134
H235  H     H_    0.534767 0.104443 0.350291 0.234376
H236  H     H_    0.460881 0.104560 0.350917 0.224901
H237  H     H_    0.499012 0.140896 0.379850 0.247431
C288  C     C_3   0.510736 0.897435 0.634364 -0.927186
H238  H     H_    0.512829 0.859659 0.620202 0.246805
H239  H     H_    0.548294 0.898989 0.648950 0.242684
H240  H     H_    0.474621 0.893097 0.649921 0.217837
C289  C     C_3   0.395669 0.992087 0.935065 -0.880189
H241  H     H_    0.373385 0.955330 0.926625 0.236972
H242  H     H_    0.400037 0.986772 0.960633 0.241499
H243  H     H_    0.370343 0.029199 0.931176 0.243001
C290  C     C_3   0.603629 0.014347 0.064899 -0.879983
H244  H     H_    0.623235 0.052979 0.072749 0.241670
H245  H     H_    0.631464 0.979306 0.069416 0.238988
H246  H     H_    0.599077 0.017880 0.039240 0.241244
C291  C     C_3   0.066703 0.419531 0.935303 -0.879438
H247  H     H_    0.072589 0.429619 0.960311 0.241643
H248  H     H_    0.048659 0.377905 0.933959 0.241139
H249  H     H_    0.108347 0.419266 0.924904 0.241183
C292  C     C_3   0.934950 0.581839 0.064799 -0.878815
H250  H     H_    0.928546 0.571664 0.039844 0.241556
H251  H     H_    0.893430 0.583129 0.075333 0.243599
H252  H     H_    0.953952 0.623051 0.065985 0.240724
C293  C     C_3   0.604343 0.007916 0.935062 -0.880190
H253  H     H_    0.626625 0.044675 0.926622 0.236971
H254  H     H_    0.599978 0.013229 0.960630 0.241499
H255  H     H_    0.629670 0.970805 0.931171 0.243003
C294  C     C_3   0.396384 0.985651 0.064894 -0.879982
H256  H     H_    0.376778 0.947019 0.072743 0.241669
H257  H     H_    0.368548 0.020692 0.069409 0.238988
H258  H     H_    0.400940 0.982118 0.039235 0.241244
C295  C     C_3   0.933298 0.580472 0.935302 -0.879440
H259  H     H_    0.891655 0.580737 0.924903 0.241180
H260  H     H_    0.927412 0.570385 0.960311 0.241644
H261  H     H_    0.951342 0.622098 0.933959 0.241142
C296  C     C_3   0.065049 0.418163 0.064798 -0.878810
H262  H     H_    0.106569 0.416873 0.075332 0.243601
H263  H     H_    0.046048 0.376951 0.065983 0.240726
H264  H     H_    0.071454 0.428338 0.039843 0.241555
C297  C     C_3   0.919507 0.433315 0.435299 -0.879457
H265  H     H_    0.919230 0.391673 0.424898 0.241173
H266  H     H_    0.929595 0.427423 0.460307 0.241649
H267  H     H_    0.877887 0.451370 0.433957 0.241138
C298  C     C_3   0.081818 0.565069 0.564797 -0.878783
H268  H     H_    0.083096 0.606591 0.575329 0.243640
H269  H     H_    0.123035 0.546080 0.565984 0.240720
H270  H     H_    0.071643 0.571467 0.539841 0.241550
C299  C     C_3   0.509264 0.895774 0.435058 -0.880207
H271  H     H_    0.514733 0.900224 0.460610 0.241527
H272  H     H_    0.472416 0.870025 0.431260 0.242987
H273  H     H_    0.546211 0.873909 0.426534 0.237004
C300  C     C_3   0.484024 0.103383 0.564901 -0.879957
H274  H     H_    0.480409 0.098749 0.539250 0.241250
H275  H     H_    0.445153 0.122428 0.572812 0.241778
H276  H     H_    0.518679 0.131727 0.569348 0.238976
C301  C     C_3   0.080483 0.566682 0.435303 -0.879458
H277  H     H_    0.080761 0.608325 0.424903 0.241169
H278  H     H_    0.070394 0.572573 0.460311 0.241649
H279  H     H_    0.122104 0.548628 0.433962 0.241140
C302  C     C_3   0.918175 0.434927 0.564798 -0.878791
H280  H     H_    0.916897 0.393406 0.575331 0.243636
H281  H     H_    0.876958 0.453917 0.565986 0.240721
H282  H     H_    0.928348 0.428528 0.539843 0.241551
C303  C     C_3   0.490739 0.104227 0.435058 -0.880207
H283  H     H_    0.453793 0.126093 0.426534 0.237005
H284  H     H_    0.485266 0.099777 0.460610 0.241528
H285  H     H_    0.527587 0.129974 0.431262 0.242984
C304  C     C_3   0.515975 0.896619 0.564900 -0.879962
H286  H     H_    0.554846 0.877573 0.572811 0.241776
H287  H     H_    0.481321 0.868274 0.569347 0.238978
H288  H     H_    0.519589 0.901252 0.539249 0.241251

loop_
_geom_bond_atom_site_label_1
_geom_bond_atom_site_label_2
_geom_bond_distance
_ccdc_geom_bond_type
C254  H138  1.109267 S    
C242  H100  1.111957 S    
C9    C25   1.416699 A    
C287  H235  1.110663 S    
C102  C144  1.408258 A    
Zn9   O24   1.948955 S    
C290  H245  1.110483 S    
O105  C261  1.414062 S    
C104  C126  1.411717 A    
Zn10  O23   1.948953 S    
C270  H184  1.112743 S    
C288  H238  1.105336 S    
C31   C279  1.520958 S    
C268  H178  1.111753 S    
C302  H282  1.107318 S    
C108  C114  1.411563 A    
C140  C172  1.414963 A    
C18   C34   1.414557 A    
C13   C293  1.519637 S    
C89   O93   1.384808 S    
C78   N5    1.356940 A    
C277  H206  1.110664 S    
Zn3   O14   1.908116 S    
O5    C41   1.286459 A    
C293  H255  1.110455 S    
C5    C17   1.416838 A    
C162  C171  1.408981 A    
C6    C22   1.417170 A    
O10   C42   1.286569 A    
C304  H288  1.106743 S    
C100  C122  1.411717 A    
O108  C264  1.413400 S    
C302  H280  1.110617 S    
C93   O97   1.384805 S    
C24   C304  1.519669 S    
C143  C191  1.416353 A    
C196  C201  1.411519 A    
C177  C188  1.410528 A    
C74   N9    1.356261 A    
C233  H75   1.109195 S    
C95   O99   1.386830 S    
C178  C187  1.411522 A    
C11   C27   1.414635 A    
C19   C299  1.519622 S    
C179  C186  1.411594 A    
C10   C290  1.519683 S    
C97   O101  1.386823 S    
C215  H19   1.109688 S    
C240  H95   1.115456 S    
C2    C10   1.419373 A    
O26   C54   1.278672 A    
C263  H165  1.108853 S    
C131  C163  1.419289 A    
C224  H48   1.109254 S    
C110  C120  1.411527 A    
O30   C58   1.278690 A    
C299  H272  1.110404 S    
C153  C201  1.416353 A    
C273  H194  1.110664 S    
C233  H74   1.114461 S    
C134  C166  1.415239 A    
C142  C174  1.415411 A    
C79   N4    1.356362 A    
C182  O58   1.389188 S    
Zn9   O12   1.908111 S    
C261  H158  1.110007 S    
C99   C121  1.411240 A    
Zn10  O11   1.908111 S    
O22   C50   1.278671 A    
O68   C224  1.413797 S    
C284  H227  1.110464 S    
O13   C45   1.287572 A    
C284  H226  1.105335 S    
C137  C169  1.415306 A    
C138  C170  1.415410 A    
C159  C207  1.415309 A    
C282  H222  1.110701 S    
C185  O61   1.386542 S    
C194  C203  1.410450 A    
O59   C215  1.413545 S    
C14   C294  1.519682 S    
C234  H78   1.109251 S    
Zn16  O9    1.908111 S    
O48   C54   1.278755 A    
Zn1   O20   1.908111 S    
C106  C116  1.411540 A    
C252  H131  1.112139 S    
C33   C69   1.415911 A    
O114  C270  1.412397 S    
C267  H175  1.113446 S    
C264  H168  1.109303 S    
C48   C65   1.471198 S    
C4    C12   1.417175 A    
C213  H13   1.109404 S    
C244  H106  1.112797 S    
C151  C199  1.415255 A    
C36   C72   1.412131 A    
C227  H56   1.114870 S    
C261  H159  1.109258 S    
C304  H286  1.110573 S    
C55   C117  1.472104 S    
C297  H267  1.110099 S    
C150  C176  1.414719 A    
C139  C187  1.416343 A    
C265  H169  1.113975 S    
Zn8   O17   1.908111 S    
C140  C188  1.414762 A    
C196  O72   1.389185 S    
C181  C192  1.410529 A    
C75   N12   1.356688 A    
C255  H141  1.109252 S    
C17   C297  1.520117 S    
C182  C191  1.411517 A    
C271  H188  1.111596 S    
O94   C250  1.413311 S    
O16   C48   1.286562 A    
C215  H21   1.109193 S    
C26   C66   1.412137 A    
C286  H234  1.110705 S    
C278  H208  1.105357 S    
C88   C158  1.408272 A    
C104  O108  1.383644 S    
Zn1   O1    1.950145 S    
C188  O64   1.386559 S    
C287  H237  1.105405 S    
O6    C42   1.286565 A    
N12   N15   1.331206 A    
N3    N8    1.330205 A    
C92   C146  1.407945 A    
C217  H25   1.109463 S    
O54   C210  1.414891 S    
C94   O98   1.383520 S    
O71   C227  1.413906 S    
O115  C271  1.412673 S    
C288  H240  1.110421 S    
C251  H127  1.113960 S    
C97   C139  1.411273 A    
C187  O63   1.385448 S    
O73   C229  1.413542 S    
C268  H180  1.109253 S    
C230  H65   1.115162 S    
C155  C203  1.415303 A    
O106  C262  1.412738 S    
Zn6   O43   1.948961 S    
C156  C204  1.414833 A    
C99   O103  1.384776 S    
C32   C280  1.521202 S    
C141  C189  1.415271 A    
C36   C284  1.521290 S    
C180  C185  1.410466 A    
Zn15  O2    1.950141 S    
C16   C296  1.519973 S    
O27   C55   1.278068 A    
O98   C254  1.413313 S    
C47   C66   1.470800 S    
C132  C164  1.414656 A    
C274  H196  1.105357 S    
C152  C174  1.415234 A    
C3    C80   1.467925 S    
O24   C52   1.280724 A    
C147  C195  1.415259 A    
C12   C28   1.414554 A    
C1    C9    1.419658 A    
C259  H151  1.113508 S    
C148  C196  1.414696 A    
C300  H274  1.106743 S    
C1    C78   1.472109 S    
C84   O88   1.384501 S    
C260  H155  1.112393 S    
C87   C119  1.405356 A    
C285  H229  1.106238 S    
O84   C240  1.414929 S    
C83   C153  1.411265 A    
C56   C118  1.480354 S    
C217  H27   1.109433 S    
C245  H109  1.113490 S    
C252  H130  1.112764 S    
C144  C192  1.414767 A    
C243  H105  1.109254 S    
O7    C43   1.287577 A    
O14   C46   1.287930 A    
C269  H182  1.109983 S    
C145  C193  1.416344 A    
O64   C220  1.413795 S    
C81   C155  1.408198 A    
C228  H58   1.109263 S    
O45   C55   1.278473 A    
C60   C122  1.480386 S    
C264  H167  1.112391 S    
C229  H61   1.109687 S    
C243  H103  1.113962 S    
C157  C205  1.416352 A    
C207  O83   1.386585 S    
C269  H181  1.113974 S    
Zn6   O2    1.950136 S    
C270  H186  1.109259 S    
C129  C177  1.415282 A    
C222  H40   1.109250 S    
C59   C121  1.471861 S    
C257  H145  1.113954 S    
Zn11  O6    1.908116 S    
O70   C226  1.414024 S    
C275  H199  1.106238 S    
C52   C114  1.480342 S    
C76   N15   1.356951 A    
Zn14  O3    1.950136 S    
C276  H203  1.109885 S    
C149  C197  1.416353 A    
C214  H17   1.115467 S    
C289  H241  1.110701 S    
C177  O53   1.386803 S    
C197  O73   1.385453 S    
C234  H76   1.109396 S    
C157  C167  1.419377 A    
C29   C65   1.411959 A    
C103  C125  1.411243 A    
C27   C275  1.520957 S    
C300  H276  1.110420 S    
C272  H190  1.111747 S    
C294  H256  1.110617 S    
C101  C127  1.405354 A    
C236  H82   1.109248 S    
C26   C274  1.521277 S    
C86   C118  1.411713 A    
C303  H283  1.110664 S    
C146  C194  1.414741 A    
C8    C24   1.419348 A    
C91   C145  1.411308 A    
C105  C131  1.411302 A    
C5    C74   1.467934 S    
C100  O104  1.383645 S    
C25   C65   1.411957 A    
C90   C122  1.411578 A    
C167  C174  1.408967 A    
C51   C113  1.472136 S    
C294  H257  1.110484 S    
O12   C44   1.287927 A    
C8    C75   1.471155 S    
C230  H64   1.109377 S    
C146  C172  1.414716 A    
Zn6   O48   1.948970 S    
C223  H43   1.109687 S    
C153  C163  1.419377 A    
O37   C63   1.277997 A    
C295  H260  1.107317 S    
O38   C64   1.280742 A    
C225  H49   1.109694 S    
O92   C248  1.412684 S    
C278  H210  1.110369 S    
C193  O69   1.385440 S    
C134  C182  1.414693 A    
C73   N10   1.356363 A    
O91   C247  1.414065 S    
O72   C228  1.414904 S    
C296  H263  1.110099 S    
C257  H147  1.109245 S    
C281  H219  1.109442 S    
Zn14  O27   1.948961 S    
C241  H97   1.113496 S    
Zn7   O3    1.950141 S    
C301  H279  1.110099 S    
Zn8   O46   1.948955 S    
C251  H129  1.109242 S    
C20   C300  1.519670 S    
C107  C113  1.411446 A    
C76   N11   1.356951 A    
C211  H9    1.109192 S    
C211  H8    1.114465 S    
C204  O80   1.389205 S    
C111  C133  1.408276 A    
C258  H150  1.109315 S    
C298  H269  1.110106 S    
C107  O111  1.384786 S    
C63   C125  1.471883 S    
C133  C165  1.415147 A    
C109  C135  1.411301 A    
C267  H177  1.108966 S    
C21   C301  1.520119 S    
C247  H115  1.113965 S    
C263  H164  1.111554 S    
C194  O70   1.386932 S    
C262  H162  1.109319 S    
C212  H11   1.115132 S    
C199  C206  1.410534 A    
C6    C18   1.417168 A    
C274  H198  1.110369 S    
C249  H122  1.111578 S    
C41   C72   1.470757 S    
O86   C242  1.413394 S    
C96   C150  1.407948 A    
C259  H153  1.108866 S    
Zn16  O30   1.948955 S    
C231  H67   1.109400 S    
C222  H41   1.115457 S    
C275  H201  1.109439 S    
C98   C140  1.408259 A    
Zn5   O44   1.948959 S    
C164  C169  1.404858 A    
O100  C256  1.412448 S    
C226  H54   1.109219 S    
O17   C45   1.287572 A    
C250  H125  1.112308 S    
C16   C32   1.414555 A    
C81   O85   1.384750 S    
C239  H91   1.109466 S    
C225  H51   1.109193 S    
O50   C52   1.280596 A    
C21   C37   1.414632 A    
O53   C209  1.413936 S    
O23   C51   1.278079 A    
O103  C259  1.412781 S    
C93   C151  1.408267 A    
C38   C286  1.521203 S    
C103  O107  1.384773 S    
O116  C272  1.413311 S    
C241  H99   1.108883 S    
C256  H142  1.112762 S    
C93   C125  1.411346 A    
N1    N6    1.331210 A    
C216  H22   1.109372 S    
C232  H72   1.109434 S    
C129  C161  1.415137 A    
C248  H119  1.112085 S    
O42   C60   1.280735 A    
C112  C118  1.411577 A    
C105  O109  1.386825 S    
C235  H79   1.109463 S    
O8    C44   1.287927 A    
C203  O79   1.386583 S    
C200  O76   1.389186 S    
C220  H36   1.109252 S    
C15   C31   1.414632 A    
C85   C159  1.408197 A    
C243  H104  1.110013 S    
O46   C56   1.280591 A    
Zn8   O37   1.948975 S    
C28   C276  1.521202 S    
O20   C48   1.286566 A    
Zn16  O21   1.948975 S    
C202  O78   1.386570 S    
C165  C176  1.404849 A    
C166  C175  1.408967 A    
C272  H192  1.109265 S    
O80   C236  1.414915 S    
C89   C147  1.408262 A    
C281  H218  1.110647 S    
C4    C16   1.417173 A    
C236  H84   1.109431 S    
C254  H137  1.112309 S    
C265  H171  1.109253 S    
Zn14  O32   1.948970 S    
C193  C204  1.411593 A    
C255  H140  1.109979 S    
O60   C216  1.414026 S    
O95   C251  1.414065 S    
C96   C128  1.411482 A    
C83   C115  1.405353 A    
C75   N16   1.356690 A    
C33   C281  1.520962 S    
C302  H281  1.110103 S    
C150  C198  1.414741 A    
C14   C30   1.416733 A    
C223  H45   1.109197 S    
C266  H174  1.109265 S    
C158  C168  1.414903 A    
C280  H216  1.109884 S    
C9    C289  1.519639 S    
C253  H133  1.113461 S    
C232  H70   1.109262 S    
O9    C41   1.286454 A    
C77   N2    1.356694 A    
C277  H205  1.105415 S    
C102  C128  1.411620 A    
O36   C64   1.280600 A    
N9    N14   1.330205 A    
Zn2   O2    1.950146 S    
C61   C123  1.458756 S    
C108  C130  1.411737 A    
C304  H287  1.110421 S    
C206  O82   1.386566 S    
C222  H42   1.109434 S    
C181  O57   1.386806 S    
Zn13  O4    1.950131 S    
C39   C71   1.411923 A    
O90   C246  1.413397 S    
C210  H6    1.109426 S    
C37   C69   1.415912 A    
Zn5   O47   1.948972 S    
C163  C170  1.408966 A    
C58   C128  1.473610 S    
C218  H30   1.109436 S    
O88   C244  1.412692 S    
C199  O75   1.386763 S    
C240  H94   1.109250 S    
C178  O54   1.389185 S    
C154  C164  1.414899 A    
C258  H148  1.112807 S    
O18   C46   1.287930 A    
C23   C303  1.519623 S    
C74   N13   1.356260 A    
C198  O74   1.386937 S    
Zn16  O1    1.950141 S    
C247  H117  1.109254 S    
C32   C68   1.415369 A    
O96   C252  1.412440 S    
C224  H47   1.114992 S    
Zn13  O28   1.948959 S    
C10   C26   1.416729 A    
C156  C162  1.415411 A    
O77   C233  1.413539 S    
C159  C165  1.415273 A    
Zn12  O34   1.948963 S    
Zn4   O13   1.908116 S    
C30   C278  1.521272 S    
C1    C13   1.419657 A    
Zn5   O16   1.908117 S    
C246  H112  1.111959 S    
C152  C200  1.414695 A    
C231  H69   1.109447 S    
Zn6   O15   1.908117 S    
C2    C77   1.471159 S    
C3    C15   1.416837 A    
C11   C291  1.520119 S    
C237  H85   1.109687 S    
C246  H114  1.109301 S    
C226  H52   1.109377 S    
C28   C68   1.415372 A    
O65   C221  1.413819 S    
C263  H163  1.113507 S    
C282  H221  1.109889 S    
C91   O95   1.386830 S    
O102  C258  1.412733 S    
C220  H34   1.109397 S    
C239  H93   1.109441 S    
O61   C217  1.413822 S    
C110  C136  1.407964 A    
C42   C71   1.471211 S    
C234  H77   1.114971 S    
C224  H46   1.109398 S    
C303  H285  1.110404 S    
C19   C35   1.416670 A    
C283  H224  1.110664 S    
C77   N6    1.356696 A    
C158  C206  1.414752 A    
C213  H14   1.114876 S    
O39   C61   1.274216 A    
C135  C183  1.416348 A    
C256  H144  1.109279 S    
Zn11  O2    1.950128 S    
C290  H244  1.110618 S    
C297  H266  1.107317 S    
O82   C238  1.413791 S    
C265  H170  1.109982 S    
Zn2   O39   1.948953 S    
C145  C171  1.419286 A    
C104  C142  1.412203 A    
C235  H81   1.109438 S    
Zn4   O41   1.948971 S    
O49   C51   1.278482 A    
C62   C124  1.473579 S    
C291  H249  1.110623 S    
C281  H217  1.106239 S    
O67   C223  1.413535 S    
O51   C49   1.274306 A    
C291  H247  1.107319 S    
O25   C53   1.274214 A    
C286  H233  1.109887 S    
Zn11  O26   1.948973 S    
C24   C40   1.416711 A    
C94   C152  1.411735 A    
C213  H15   1.109454 S    
C301  H278  1.107318 S    
O29   C57   1.274304 A    
C287  H236  1.109413 S    
C135  C167  1.419290 A    
O101  C257  1.414065 S    
O41   C59   1.277987 A    
O44   C58   1.278597 A    
O31   C59   1.278398 A    
O62   C218  1.414929 S    
O85   C241  1.412791 S    
O43   C57   1.274218 A    
C35   C283  1.520775 S    
C288  H239  1.110466 S    
C251  H128  1.109981 S    
C168  C173  1.404859 A    
Zn4   O50   1.948963 S    
C88   C120  1.411676 A    
C86   C160  1.412193 A    
O21   C49   1.274221 A    
C266  H172  1.112743 S    
C131  C179  1.416349 A    
C148  C170  1.415234 A    
C132  C180  1.414725 A    
C209  H3    1.109452 S    
C267  H176  1.111596 S    
Zn11  O33   1.948961 S    
C277  H207  1.109512 S    
C90   C148  1.411730 A    
O47   C53   1.274299 A    
C161  C172  1.404849 A    
Zn4   O4    1.950133 S    
C299  H271  1.106671 S    
C101  O105  1.386824 S    
C81   C113  1.411347 A    
O107  C263  1.412779 S    
C259  H152  1.111552 S    
C210  H4    1.109264 S    
C195  C202  1.410534 A    
Zn12  O1    1.950133 S    
C95   C149  1.411297 A    
C91   C123  1.405420 A    
C242  H101  1.112391 S    
C92   O96   1.384330 S    
C245  H110  1.111581 S    
C218  H28   1.109249 S    
C219  H33   1.109195 S    
C95   C127  1.405428 A    
O99   C255  1.414063 S    
C250  H126  1.109266 S    
C144  C176  1.414960 A    
C31   C67   1.415922 A    
C8    C20   1.419345 A    
C92   C124  1.411467 A    
O87   C243  1.414064 S    
C229  H62   1.114468 S    
C87   C157  1.411267 A    
O78   C234  1.413797 S    
C200  C205  1.411524 A    
C112  O116  1.383531 S    
C293  H254  1.106665 S    
C82   C156  1.412207 A    
C270  H185  1.112153 S    
C233  H73   1.109688 S    
C17   C33   1.414637 A    
C7    C76   1.472165 S    
C283  H225  1.109421 S    
C261  H157  1.113963 S    
C110  O114  1.384278 S    
C284  H228  1.110425 S    
C149  C175  1.419292 A    
C245  H111  1.108892 S    
C276  H202  1.106259 S    
C90   O94   1.383520 S    
C15   C295  1.520120 S    
C79   N8    1.356364 A    
C252  H132  1.109275 S    
C220  H35   1.114987 S    
Zn2   O19   1.908111 S    
C85   O89   1.384755 S    
C44   C69   1.474646 S    
C130  C178  1.414683 A    
C301  H277  1.110624 S    
C100  C138  1.412205 A    
C229  H63   1.109192 S    
C268  H179  1.112307 S    
C80   N3    1.356256 A    
C111  C117  1.411437 A    
C269  H183  1.109251 S    
C37   C285  1.520957 S    
Zn12  O25   1.948971 S    
C109  C119  1.405425 A    
C20   C36   1.416711 A    
Zn3   O49   1.948961 S    
C289  H243  1.110455 S    
C238  H89   1.114970 S    
C96   O100  1.384328 S    
C216  H24   1.109226 S    
O57   C213  1.413938 S    
Zn7   O45   1.948957 S    
O15   C47   1.286468 A    
O33   C61   1.274302 A    
C271  H187  1.113444 S    
C97   C123  1.405345 A    
Zn15  O22   1.948973 S    
C223  H44   1.114462 S    
C106  O110  1.384276 S    
C98   C124  1.411607 A    
C295  H259  1.110625 S    
C147  C169  1.415176 A    
C7    C19   1.419648 A    
C225  H50   1.114449 S    
C278  H209  1.110496 S    
C38   C70   1.415373 A    
C197  C208  1.411588 A    
C214  H16   1.109260 S    
C198  C207  1.410449 A    
O111  C267  1.412672 S    
C5    C21   1.416841 A    
O76   C232  1.414903 S    
C105  C115  1.405428 A    
C296  H262  1.110615 S    
Zn1   O51   1.948970 S    
C109  O113  1.386827 S    
C228  H59   1.115466 S    
Zn1   O40   1.948955 S    
C82   O86   1.383647 S    
C241  H98   1.111582 S    
C142  C190  1.414854 A    
C111  O115  1.384790 S    
O69   C225  1.413527 S    
C291  H248  1.110095 S    
C73   N14   1.356361 A    
C34   C282  1.521203 S    
C43   C70   1.473401 S    
C86   O90   1.383656 S    
C230  H66   1.109218 S    
C102  O106  1.384551 S    
O63   C219  1.413522 S    
C183  C190  1.411595 A    
C258  H149  1.112069 S    
C298  H268  1.110617 S    
C88   O92   1.384503 S    
C112  C134  1.411729 A    
O75   C231  1.413904 S    
C238  H88   1.109399 S    
C227  H55   1.109399 S    
O28   C56   1.280733 A    
C247  H116  1.110012 S    
O113  C269  1.414064 S    
C254  H136  1.111750 S    
C262  H161  1.112074 S    
C212  H10   1.109367 S    
C23   C39   1.416667 A    
C274  H197  1.110497 S    
C249  H123  1.108940 S    
Zn3   O3    1.950128 S    
C260  H154  1.111964 S    
C160  C166  1.415417 A    
O32   C60   1.280592 A    
C107  C129  1.408276 A    
O104  C260  1.413398 S    
C212  H12   1.109227 S    
C231  H68   1.114869 S    
C260  H156  1.109302 S    
C285  H230  1.110649 S    
C34   C70   1.415375 A    
C217  H26   1.114775 S    
C226  H53   1.115156 S    
C98   O102  1.384553 S    
C18   C298  1.519974 S    
C250  H124  1.111751 S    
C239  H92   1.114779 S    
O97   C253  1.412655 S    
C190  O66   1.389202 S    
Zn15  O10   1.908111 S    
C99   C137  1.408195 A    
O52   C50   1.278756 A    
C256  H143  1.112141 S    
C57   C127  1.458766 S    
C192  O68   1.386568 S    
Zn10  O36   1.948972 S    
C292  H250  1.107320 S    
C160  C208  1.414848 A    
C29   C277  1.520850 S    
C103  C141  1.408192 A    
C292  H251  1.110615 S    
C45   C68   1.473384 S    
C184  C189  1.410465 A    
C46   C67   1.474655 S    
C101  C143  1.411265 A    
C2    C14   1.419372 A    
C209  H1    1.109401 S    
C232  H71   1.115467 S    
C3    C11   1.416836 A    
C248  H118  1.112801 S    
C180  O56   1.386944 S    
Zn7   O18   1.908111 S    
C106  C132  1.407970 A    
C154  C202  1.414754 A    
C143  C175  1.419383 A    
C53   C115  1.458777 S    
C276  H204  1.110702 S    
C240  H96   1.109431 S    
C84   C154  1.408273 A    
C54   C116  1.473877 S    
O110  C266  1.412400 S    
C184  O60   1.386938 S    
C214  H18   1.109432 S    
C289  H242  1.106663 S    
O55   C211  1.413546 S    
C292  H252  1.110100 S    
C64   C126  1.480385 S    
C290  H246  1.106733 S    
C22   C302  1.519974 S    
O109  C265  1.414065 S    
Zn13  O31   1.948972 S    
C293  H253  1.110702 S    
C39   C287  1.520776 S    
O35   C63   1.278414 A    
C236  H83   1.115453 S    
Zn15  O29   1.948957 S    
C242  H102  1.109290 S    
C275  H200  1.110644 S    
O40   C62   1.278585 A    
C205  O81   1.385457 S    
C228  H60   1.109435 S    
O112  C268  1.413306 S    
C49   C119  1.458777 S    
C238  H90   1.109255 S    
C25   C273  1.520845 S    
O79   C235  1.413854 S    
C40   C72   1.412130 A    
C50   C120  1.473859 S    
C294  H258  1.106732 S    
C201  O77   1.385456 S    
C83   O87   1.386818 S    
O89   C245  1.412798 S    
C271  H189  1.108975 S    
C266  H173  1.112152 S    
C179  O55   1.385452 S    
C108  O112  1.383521 S    
C22   C38   1.414557 A    
C295  H261  1.110095 S    
C253  H134  1.111578 S    
O58   C214  1.414902 S    
C35   C71   1.411923 A    
C279  H213  1.106237 S    
C262  H160  1.112802 S    
C151  C173  1.415170 A    
C296  H264  1.107321 S    
C87   O91   1.386818 S    
C94   C126  1.411577 A    
Zn3   O42   1.948973 S    
C27   C67   1.415922 A    
C155  C161  1.415266 A    
C216  H23   1.115125 S    
C4    C79   1.468336 S    
C130  C162  1.415230 A    
C219  H31   1.109694 S    
Zn2   O52   1.948972 S    
C210  H5    1.115462 S    
Zn7   O38   1.948973 S    
C215  H20   1.114466 S    
C211  H7    1.109690 S    
C218  H29   1.115458 S    
C219  H32   1.114448 S    
C221  H37   1.109459 S    
C221  H38   1.114775 S    
O34   C62   1.278684 A    
N11   N16   1.331201 A    
C298  H270  1.107317 S    
C253  H135  1.108941 S    
C84   C116  1.411682 A    
C186  O62   1.389202 S    
C40   C288  1.521290 S    
C136  C184  1.414723 A    
C227  H57   1.109448 S    
C137  C185  1.415276 A    
O56   C212  1.414027 S    
C195  O71   1.386763 S    
C280  H214  1.110705 S    
C12   C292  1.519975 S    
C299  H273  1.110665 S    
Zn5   O1    1.950131 S    
C249  H121  1.113461 S    
Zn9   O4    1.950145 S    
O11   C43   1.287576 A    
Zn10  O3    1.950146 S    
C208  O84   1.389206 S    
C297  H265  1.110623 S    
Zn8   O4    1.950141 S    
Zn12  O5    1.908116 S    
C82   C114  1.411695 A    
Zn13  O8    1.908117 S    
C237  H86   1.114460 S    
C246  H113  1.112395 S    
Zn14  O7    1.908117 S    
C279  H212  1.109438 S    
C273  H195  1.109505 S    
C221  H39   1.109435 S    
C282  H220  1.106260 S    
C30   C66   1.412134 A    
C133  C181  1.415288 A    
C273  H193  1.105416 S    
C13   C29   1.416698 A    
C285  H231  1.109439 S    
O93   C249  1.412663 S    
C244  H107  1.112085 S    
C78   N1    1.356943 A    
C136  C168  1.414654 A    
C272  H191  1.112312 S    
C141  C173  1.415300 A    
O83   C239  1.413855 S    
C303  H284  1.106673 S    
C283  H223  1.105405 S    
C209  H2    1.114877 S    
N10   N13   1.330205 A    
C264  H166  1.111961 S    
C279  H211  1.110646 S    
C85   C117  1.411342 A    
N4    N7    1.330205 A    
C7    C23   1.419645 A    
C6    C73   1.468331 S    
C235  H80   1.114786 S    
C300  H275  1.110575 S    
N2    N5    1.331214 A    
C257  H146  1.110009 S    
O66   C222  1.414930 S    
C248  H120  1.109303 S    
C89   C121  1.411335 A    
C244  H108  1.109302 S    
C237  H87   1.109197 S    
C138  C186  1.414853 A    
C139  C171  1.419377 A    
C255  H139  1.113972 S    
O19   C47   1.286468 A    
O81   C237  1.413540 S    
O74   C230  1.414033 S    
Zn9   O35   1.948970 S    
C280  H215  1.106259 S    
C286  H232  1.106255 S    
C189  O65   1.386543 S    
C80   N7    1.356256 A    
C183  O59   1.385451 S    
C191  O67   1.385459 S    
