data_mof_unit_2019.cif
_audit_creation_date              2012-12-10T17:17:15-0500
_audit_creation_method            fapswitch 2.2
_symmetry_space_group_name_H-M    P1
_symmetry_Int_Tables_number       1
_space_group_crystal_system       triclinic
_cell_length_a                    21.716352
_cell_length_b                    21.659926
_cell_length_c                    21.6385
_cell_angle_alpha                 89.882483
_cell_angle_beta                  90.179421
_cell_angle_gamma                 89.787548
_cell_volume                      10178.0587635

loop_
_atom_site_label
_atom_site_type_symbol
_atom_type_description
_atom_site_fract_x
_atom_site_fract_y
_atom_site_fract_z
_atom_type_partial_charge
C1    C     C_R   0.500169 0.119818 0.992295 0.891082
C2    C     C_R   0.500382 0.999395 0.879722 0.866421
C3    C     C_R   0.277159 0.357589 0.070679 -0.098786
C4    C     C_R   0.850320 0.597166 0.717511 -0.154424
C5    C     C_R   0.722000 0.658252 0.064714 -0.134404
C6    C     C_R   0.166599 0.529845 0.269592 -0.150630
C7    C     C_R   0.282225 0.662653 0.928651 -0.228650
C8    C     C_R   0.654723 0.726803 0.950528 -0.160099
C9    C     C_R   0.667356 0.993435 0.716556 -0.135729
C10   C     C_R   0.574159 0.272777 0.138102 -0.134917
C11   C     C_R   0.612365 0.888039 0.269558 0.001383
C12   C     C_R   0.425655 0.284240 0.836050 -0.126190
C13   C     C_R   0.997956 0.499851 0.119987 0.877157
C14   C     C_R   0.332619 0.997515 0.728747 -0.037241
C15   C     C_R   0.333124 0.726705 0.050289 -0.212316
C16   C     C_R   0.332690 0.065729 0.267965 -0.048099
C17   C     C_R   0.274357 0.168126 0.529816 -0.172482
C18   C     C_R   0.838383 0.290493 0.563027 -0.124468
C19   C     C_R   0.735749 0.841231 0.526504 -0.183704
C20   C     C_R   0.112986 0.732688 0.606667 -0.184106
C21   C     C_R   0.717489 0.162854 0.426586 -0.175231
C22   C     C_R   0.165595 0.275761 0.493300 -0.271954
C23   C     C_R   0.272424 0.831352 0.512754 -0.221830
C24   C     C_R   0.500614 0.008845 0.120081 0.893722
C25   C     C_R   0.925005 0.720786 0.334912 -0.198554
C26   C     C_R   0.443869 0.000228 0.720374 -0.027988
C27   C     C_R   0.279599 0.943895 0.508490 0.076161
C28   C     C_R   0.528868 0.961606 0.277995 -0.013860
C29   C     C_R   0.722368 0.948791 0.496550 0.093363
C30   C     C_R   0.436191 0.023450 0.278797 0.002306
C31   C     C_R   0.278319 0.058201 0.505266 0.143643
C32   C     C_R   0.555855 0.992995 0.717402 -0.016481
C33   C     C_R   0.717286 0.054305 0.456697 0.036976
C34   C     C_R   0.055872 0.279878 0.514236 0.052745
C35   C     C_R   0.000104 0.619858 0.492249 0.889265
C36   C     C_R   0.056199 0.511327 0.279068 0.003809
C37   C     C_R   0.034968 0.722131 0.526637 0.095244
C38   C     C_R   0.051290 0.496268 0.721663 0.028164
C39   C     C_R   0.960725 0.717685 0.441479 0.101142
C40   C     C_R   0.947848 0.478801 0.280510 -0.003383
C41   C     C_R   0.947563 0.284068 0.542012 0.059957
C42   C     C_R   0.950098 0.545368 0.717902 0.003880
C43   C     C_R   0.717090 0.553221 0.024768 0.033422
C44   C     C_R   0.443271 0.719381 0.031206 0.056460
C45   C     C_R   0.277706 0.460541 0.025226 0.038252
C46   C     C_R   0.496294 0.620666 0.000005 0.772276
C47   C     C_R   0.509728 0.276995 0.045903 0.025157
C48   C     C_R   0.282648 0.555220 0.961562 0.030977
C49   C     C_R   0.547752 0.721682 0.985128 -0.006494
C50   C     C_R   0.718816 0.445710 0.988601 0.043556
C51   C     C_R   0.457749 0.283013 0.944513 0.009927
C52   C     C_R   0.943927 0.500778 0.220322 -0.025944
C53   C     C_R   0.779637 0.443980 0.010048 0.072543
C54   C     C_R   0.035131 0.465952 0.776358 -0.007041
C55   C     C_R   0.221971 0.447633 0.995899 0.096484
C56   C     C_R   0.938255 0.523218 0.778388 -0.017750
C57   C     C_R   0.000561 0.380611 0.509740 0.928665
C58   C     C_R   0.778287 0.558257 0.005987 0.142456
C59   C     C_R   0.055877 0.493024 0.217488 -0.017938
C60   C     C_R   0.217428 0.554004 0.957227 0.035200
C61   C     C_R   0.555610 0.779663 0.012713 0.053530
C62   C     C_R   0.556248 0.011280 0.779004 0.004093
C63   C     C_R   0.535724 0.221861 0.026637 0.098433
C64   C     C_R   0.548016 0.988885 0.223001 0.038262
C65   C     C_R   0.461410 0.217607 0.941405 0.100713
C66   C     C_R   0.448010 0.978354 0.780594 -0.002527
C67   C     C_R   0.447178 0.783792 0.040930 0.062162
C68   C     C_R   0.492007 0.380013 0.999971 0.876010
C69   C     C_R   0.449612 0.044378 0.218109 0.008146
C70   C     C_R   0.217239 0.053045 0.524470 0.038028
C71   C     C_R   0.943197 0.219762 0.531528 0.054672
C72   C     C_R   0.777450 0.962467 0.526587 0.031689
C73   C     C_R   0.008682 0.777029 0.546069 0.026655
C74   C     C_R   0.782533 0.056073 0.461399 0.030522
C75   C     C_R   0.048191 0.221883 0.486481 -0.006130
C76   C     C_R   0.218720 0.945823 0.487353 0.044328
C77   C     C_R   0.956911 0.783118 0.444684 0.010798
C78   C     C_R   0.499060 0.998808 0.686077 -0.177820
C79   C     C_R   0.379660 0.504508 0.999950 0.857063
C80   C     C_R   0.312522 0.001109 0.505347 -0.109164
C81   C     C_R   0.482971 0.992248 0.311895 -0.238372
C82   C     C_R   0.686450 0.999600 0.476311 -0.151856
C83   C     C_R   0.002387 0.314630 0.526732 -0.129669
C84   C     C_R   0.001783 0.496436 0.313179 -0.237388
C85   C     C_R   0.000324 0.686848 0.484366 -0.079614
C86   C     C_R   0.003311 0.523771 0.686913 -0.204329
C87   C     C_R   0.685579 0.500340 0.002585 -0.133597
C88   C     C_R   0.493766 0.688184 0.001430 -0.144081
C89   C     C_R   0.312688 0.508979 0.998633 -0.107149
C90   C     C_R   0.379456 0.000326 0.501791 0.873286
C91   C     C_R   0.480767 0.313028 0.999256 -0.178146
C92   C     C_R   0.999132 0.498916 0.186077 -0.175910
C93   C     C_R   0.812540 0.501187 0.006584 -0.099988
C94   C     C_R   0.986212 0.492246 0.810876 -0.175392
C95   C     C_R   0.186349 0.499188 0.976357 -0.164240
C96   C     C_R   0.502151 0.814412 0.025746 -0.127770
C97   C     C_R   0.501870 0.996326 0.813179 -0.237413
C98   C     C_R   0.500754 0.186727 0.984442 -0.082798
C99   C     C_R   0.502703 0.020516 0.187741 -0.199657
C100  C     C_R   0.185567 0.000259 0.502272 -0.132030
C101  C     C_R   0.619881 0.500391 0.000436 0.839405
C102  C     C_R   0.993809 0.188435 0.501838 -0.140094
C103  C     C_R   0.812680 0.010209 0.498997 -0.103666
C104  C     C_R   0.980040 0.813137 0.499361 -0.182140
C105  C     C_2   0.402652 0.897019 0.853263 0.976781
C106  C     C_2   0.147580 0.890939 0.410728 0.958049
C107  C     C_2   0.644556 0.030055 0.172501 0.991953
C108  C     C_2   0.823305 0.942352 0.634185 0.954996
C109  C     C_2   0.428437 0.129454 0.139204 0.926431
C110  C     C_2   0.148470 0.089052 0.613597 1.000371
C111  C     C_2   0.612217 0.087148 0.850272 1.016368
C112  C     C_R   0.996183 0.120752 0.500067 0.771806
C113  C     C_R   0.619779 0.999839 0.490753 0.901850
C114  C     C_2   0.863895 0.100052 0.388493 1.013607
C115  C     C_2   0.088476 0.158300 0.395265 0.957821
C116  C     C_2   0.114756 0.420461 0.148027 0.962153
C117  C     C_2   0.975086 0.830092 0.644475 0.990381
C118  C     C_2   0.036387 0.356206 0.820643 1.057515
C119  C     C_2   0.892788 0.871666 0.399029 0.979045
C120  C     C_2   0.878907 0.574859 0.156778 0.919555
C121  C     C_2   0.884550 0.140299 0.594073 1.004967
C122  C     C_2   0.850746 0.479947 0.843420 0.907747
C123  C     C_2   0.844604 0.637808 0.947669 0.973602
C124  C     C_R   0.491407 0.998740 0.379734 0.907107
C125  C     C_2   0.403513 0.866477 0.111988 0.940684
C126  C     C_2   0.160529 0.363680 0.942996 0.940583
C127  C     C_2   0.641860 0.176321 0.012272 0.982037
C128  C     C_2   0.130968 0.604022 0.894321 0.946404
C129  C     C_2   0.630316 0.845805 0.073966 0.955069
C130  C     C_2   0.850496 0.380237 0.080927 0.979053
C131  C     C_2   0.390516 0.134848 0.896224 0.968523
C132  C     C_2   0.901739 0.397718 0.352979 0.977556
C133  C     C_2   0.647904 0.390163 0.912272 0.956445
C134  C     C_2   0.142040 0.545181 0.666617 0.975321
C135  C     C_R   0.000360 0.499373 0.379724 0.867300
C136  C     C_2   0.323131 0.440279 0.132861 0.956264
C137  C     C_2   0.925300 0.629378 0.638847 0.925743
C138  C     C_2   0.647871 0.589858 0.113266 1.001824
C139  C     C_2   0.111933 0.587290 0.350314 1.018478
C140  C     C_2   0.363274 0.598595 0.887636 1.016409
C141  C     C_2   0.587124 0.658078 0.893493 0.960320
C142  C     C_2   0.614522 0.920322 0.647831 0.967270
C143  C     C_2   0.475499 0.329971 0.144133 0.989049
C144  C     C_2   0.515628 0.853371 0.317613 0.983789
C145  C     C_2   0.393605 0.371311 0.898343 0.974954
C146  C     C_R   0.497858 0.999834 0.619984 0.881821
C147  C     C_2   0.378072 0.073362 0.656549 0.919425
C148  C     C_2   0.386376 0.640306 0.095631 1.011546
C149  C     C_2   0.347559 0.984565 0.346879 0.903422
C150  C     C_2   0.344884 0.138287 0.447816 0.969151
C151  C     C_2   0.905293 0.366483 0.614225 0.927089
C152  C     C_2   0.672573 0.864607 0.433154 0.902198
C153  C     C_2   0.141657 0.679778 0.509086 0.980700
C154  C     C_2   0.631024 0.101478 0.391787 0.948446
C155  C     C_2   0.129887 0.346457 0.576148 0.961701
C156  C     C_2   0.349737 0.879745 0.579689 0.979567
C157  C     C_R   0.000639 0.510210 0.619650 0.896859
C158  C     C_2   0.890149 0.634637 0.396346 0.971794
C159  C     C_R   0.396479 0.946310 0.805334 -0.048470
C160  C     C_R   0.192937 0.890954 0.461800 -0.062945
C161  C     C_R   0.610415 0.979991 0.205210 -0.057909
C162  C     C_R   0.797541 0.920951 0.574119 -0.010903
C163  C     C_R   0.408987 0.087872 0.190024 -0.075951
C164  C     C_R   0.500518 0.880513 0.009387 0.925203
C165  C     C_R   0.192454 0.100842 0.562770 -0.156906
C166  C     C_R   0.611326 0.039553 0.801350 -0.113572
C167  C     C_R   0.813469 0.107644 0.434067 -0.225211
C168  C     C_R   0.097422 0.199597 0.448661 -0.065462
C169  C     C_R   0.111958 0.473423 0.190795 -0.135786
C170  C     C_R   0.021363 0.796336 0.607541 0.001004
C171  C     C_R   0.068169 0.410668 0.791650 -0.078963
C172  C     C_R   0.929838 0.814756 0.393044 -0.115124
C173  C     C_R   0.885736 0.521433 0.199052 -0.079873
C174  C     C_R   0.886311 0.191264 0.548356 -0.236414
C175  C     C_R   0.991771 0.880067 0.499981 0.877309
C176  C     C_R   0.876608 0.526293 0.800252 -0.068689
C177  C     C_R   0.801794 0.619606 0.997677 -0.045148
C178  C     C_R   0.395923 0.815316 0.067245 -0.001235
C179  C     C_R   0.203796 0.384685 0.991066 0.020004
C180  C     C_R   0.593915 0.204690 0.051931 -0.090439
C181  C     C_R   0.186970 0.607352 0.932678 0.000476
C182  C     C_R   0.616285 0.801822 0.023177 -0.071598
C183  C     C_R   0.803101 0.385796 0.031606 -0.080886
C184  C     C_R   0.433447 0.187477 0.889743 -0.154097
C185  C     C_R   0.896024 0.447152 0.305142 -0.048215
C186  C     C_R   0.879698 0.005151 0.499999 0.858533
C187  C     C_R   0.693106 0.390619 0.963484 -0.062426
C188  C     C_R   0.113750 0.493925 0.702539 -0.048473
C189  C     C_R   0.298031 0.418802 0.072542 -0.011677
C190  C     C_R   0.907987 0.587974 0.690547 -0.073988
C191  C     C_R   0.691982 0.601327 0.062462 -0.158579
C192  C     C_R   0.111211 0.539666 0.301462 -0.113773
C193  C     C_R   0.313907 0.606622 0.934313 -0.224151
C194  C     C_R   0.596619 0.699289 0.946863 -0.064216
C195  C     C_R   0.611884 0.973332 0.690608 -0.140024
C196  C     C_R   0.521947 0.296091 0.107579 0.001133
C197  C     C_R   0.879475 0.500341 0.002267 0.871885
C198  C     C_R   0.555309 0.904213 0.294902 -0.088929
C199  C     C_R   0.430987 0.314599 0.892653 -0.113648
C200  C     C_R   0.385469 0.020218 0.699065 -0.077996
C201  C     C_R   0.386960 0.690409 0.048961 -0.235956
C202  C     C_R   0.374231 0.027285 0.299832 -0.064682
C203  C     C_R   0.301964 0.119580 0.497571 -0.043514
C204  C     C_R   0.896847 0.315753 0.569030 0.000306
C205  C     C_R   0.706757 0.885524 0.488679 0.030336
C206  C     C_R   0.094033 0.706241 0.550541 -0.089034
C207  C     C_R   0.686477 0.106688 0.430785 -0.003145
C208  C     C_R   0.119877 0.000357 0.500394 0.839009
C209  C     C_R   0.116406 0.302174 0.525305 -0.074265
C210  C     C_R   0.302930 0.885578 0.529827 -0.076471
C211  C     C_R   0.932673 0.687581 0.389863 -0.155398
C212  C     C_R   0.338429 0.957029 0.778597 -0.101422
C213  C     C_R   0.220296 0.834119 0.475810 -0.136778
C214  C     C_R   0.642436 0.928863 0.229907 -0.096975
C215  C     C_R   0.776912 0.859686 0.572021 -0.103093
C216  C     C_R   0.350748 0.097730 0.215587 -0.154866
C217  C     C_R   0.222645 0.157652 0.565493 -0.135234
C218  C     C_R   0.666667 0.029660 0.769384 -0.149168
C219  C     C_R   0.119744 0.499797 0.990787 0.888027
C220  C     C_R   0.781077 0.163197 0.427324 -0.226509
C221  C     C_R   0.155451 0.227237 0.452836 -0.159061
C222  C     C_R   0.167390 0.493609 0.216793 -0.135051
C223  C     C_R   0.074358 0.773840 0.637263 -0.138996
C224  C     C_R   0.127082 0.402692 0.765368 -0.045106
C225  C     C_R   0.924173 0.784461 0.336438 -0.122089
C226  C     C_R   0.832658 0.499145 0.228643 -0.037149
C227  C     C_R   0.832958 0.228356 0.549915 -0.210599
C228  C     C_R   0.833914 0.564637 0.770036 -0.049452
C229  C     C_R   0.773860 0.668465 0.029177 -0.172666
C230  C     C_R   0.993517 0.498651 0.879137 0.891134
C231  C     C_R   0.337757 0.789216 0.061730 -0.123607
C232  C     C_R   0.233624 0.339882 0.027203 -0.203171
C233  C     C_R   0.612390 0.230687 0.108322 -0.197403
C234  C     C_R   0.218666 0.663176 0.929010 -0.176856
C235  C     C_R   0.665204 0.775387 0.990787 -0.272721
C236  C     C_R   0.772509 0.331452 0.015079 -0.221347
C237  C     C_R   0.426264 0.220561 0.834659 -0.201586
C238  C     C_R   0.838080 0.458454 0.278382 -0.098449
C239  C     C_R   0.720353 0.333906 0.978159 -0.134347
C240  C     C_R   0.151456 0.446974 0.726056 -0.104342
H1    H     H_    0.709572 0.049055 0.785916 0.191930
H2    H     H_    0.787146 0.512649 0.212898 0.189159
H3    H     H_    0.907681 0.808820 0.295783 0.177705
H4    H     H_    0.786854 0.568187 0.786220 0.196168
H5    H     H_    0.086763 0.789270 0.683197 0.196219
H6    H     H_    0.211199 0.480690 0.196826 0.189782
H7    H     H_    0.193467 0.210858 0.424887 0.188849
H8    H     H_    0.155831 0.363138 0.774734 0.151320
H9    H     H_    0.788967 0.286730 0.030522 0.172996
H10   H     H_    0.711799 0.791922 0.996652 0.158407
H11   H     H_    0.195359 0.705030 0.914178 0.186307
H12   H     H_    0.205896 0.194449 0.594913 0.152942
H13   H     H_    0.409322 0.198548 0.793079 0.157449
H14   H     H_    0.221507 0.291560 0.023832 0.164290
H15   H     H_    0.296933 0.814132 0.076207 0.183547
H16   H     H_    0.792001 0.714874 0.026118 0.139361
H17   H     H_    0.656342 0.219201 0.129149 0.171092
H18   H     H_    0.209458 0.549311 0.286171 0.192241
H19   H     H_    0.705019 0.695328 0.093646 0.153734
H20   H     H_    0.817253 0.628847 0.697129 0.180342
H21   H     H_    0.305055 0.703902 0.912277 0.188080
H22   H     H_    0.199307 0.442933 0.712896 0.159544
H23   H     H_    0.318626 0.129915 0.194488 0.181764
H24   H     H_    0.701433 0.291238 0.960751 0.215019
H25   H     H_    0.796965 0.437320 0.296961 0.171954
H26   H     H_    0.293458 0.323474 0.103571 0.221904
H27   H     H_    0.288205 0.706634 0.057457 0.169906
H28   H     H_    0.286976 0.010534 0.712979 0.189615
H29   H     H_    0.409441 0.308573 0.795266 0.176309
H30   H     H_    0.285472 0.070686 0.283265 0.198558
H31   H     H_    0.586030 0.287908 0.184278 0.195497
H32   H     H_    0.711113 0.980460 0.696527 0.187358
H33   H     H_    0.692505 0.710319 0.922322 0.188466
H34   H     H_    0.803599 0.204569 0.410828 0.187881
H35   H     H_    0.633851 0.844278 0.281125 0.180202
H36   H     H_    0.288839 0.786511 0.527888 0.173860
H37   H     H_    0.212139 0.292291 0.499553 0.157970
H38   H     H_    0.693851 0.204138 0.410725 0.187034
H39   H     H_    0.907921 0.698800 0.293374 0.158501
H40   H     H_    0.726724 0.792432 0.522035 0.162028
H41   H     H_    0.797854 0.315665 0.577879 0.183300
H42   H     H_    0.292662 0.214502 0.527242 0.139248
H43   H     H_    0.157620 0.722677 0.626671 0.168824
H44   H     H_    0.488225 0.870464 0.826486 0.304252
H45   H     H_    0.689689 0.919013 0.217873 0.155493
H46   H     H_    0.078681 0.846033 0.367263 0.362648
H47   H     H_    0.712441 0.974971 0.138032 0.346928
H48   H     H_    0.848526 0.920654 0.721525 0.344389
H49   H     H_    0.513736 0.143176 0.174563 0.337717
H50   H     H_    0.099327 0.167107 0.598072 0.300037
H51   H     H_    0.532021 0.126343 0.822948 0.274773
H52   H     H_    0.905091 0.181175 0.409473 0.306734
H53   H     H_    0.122310 0.088904 0.343245 0.368359
H54   H     H_    0.045435 0.373609 0.189502 0.320988
H55   H     H_    0.956285 0.879813 0.720973 0.360050
H56   H     H_    0.201423 0.791606 0.457961 0.213975
H57   H     H_    0.112118 0.299363 0.830728 0.334858
H58   H     H_    0.855776 0.843731 0.479217 0.302648
H59   H     H_    0.953765 0.620038 0.189764 0.297681
H60   H     H_    0.798347 0.111792 0.570529 0.293798
H61   H     H_    0.886700 0.407724 0.798517 0.343748
H62   H     H_    0.896949 0.691593 0.003108 0.314578
H63   H     H_    0.454836 0.902450 0.180321 0.349764
H64   H     H_    0.118569 0.300682 0.997924 0.326951
H65   H     H_    0.683685 0.129270 0.081642 0.353459
H66   H     H_    0.091453 0.565685 0.820640 0.343374
H67   H     H_    0.297517 0.935569 0.797253 0.172148
H68   H     H_    0.696430 0.891463 0.026451 0.312257
H69   H     H_    0.893469 0.306713 0.042298 0.314857
H70   H     H_    0.414542 0.096388 0.814861 0.275147
H71   H     H_    0.987194 0.370621 0.326356 0.304388
H72   H     H_    0.579264 0.344802 0.868874 0.362849
H73   H     H_    0.205421 0.491440 0.623157 0.345921
H74   H     H_    0.347614 0.418683 0.220443 0.344314
H75   H     H_    0.009625 0.647891 0.673914 0.339950
H76   H     H_    0.598835 0.667899 0.097273 0.300502
H77   H     H_    0.031737 0.626379 0.322735 0.274452
H78   H     H_    0.792860 0.825696 0.605216 0.221460
H79   H     H_    0.405998 0.679056 0.908080 0.307072
H80   H     H_    0.620327 0.588651 0.841110 0.366680
H81   H     H_    0.545594 0.873413 0.689895 0.319816
H82   H     H_    0.456357 0.380327 0.220125 0.359723
H83   H     H_    0.552791 0.850647 0.402605 0.350551
H84   H     H_    0.354829 0.342316 0.977249 0.303143
H85   H     H_    0.452431 0.119510 0.689300 0.297582
H86   H     H_    0.301071 0.609346 0.072391 0.293916
H87   H     H_    0.397648 0.910125 0.322222 0.331855
H88   H     H_    0.397908 0.190298 0.504291 0.314950
H89   H     H_    0.787646 0.208889 0.556121 0.168659
H90   H     H_    0.957925 0.401745 0.682253 0.338734
H91   H     H_    0.643199 0.782787 0.468587 0.323623
H92   H     H_    0.191923 0.639820 0.577349 0.354213
H93   H     H_    0.592318 0.058923 0.319901 0.344778
H94   H     H_    0.197176 0.391477 0.529686 0.308726
H95   H     H_    0.393160 0.806433 0.541170 0.315515
H96   H     H_    0.914289 0.596571 0.314856 0.274881
O1    O     O_R   0.551740 0.091630 0.999970 -0.602896
O2    O     O_R   0.908370 0.448260 0.000030 -0.619770
O3    O     O_R   0.606084 0.341471 0.907181 -0.794536
O4    O     O_2   0.120318 0.597062 0.670476 -0.626555
O5    O     O_R   0.193672 0.536159 0.629159 -0.757462
O6    O     O_2   0.328294 0.495115 0.143551 -0.553775
O7    O     O_R   0.334175 0.398031 0.180637 -0.781722
O8    O     O_2   0.886828 0.644142 0.600223 -0.537780
O9    O     O_R   0.984109 0.654830 0.635298 -0.806027
O10   O     O_2   0.654540 0.544326 0.146044 -0.541292
O11   O     O_R   0.601341 0.632251 0.127524 -0.713548
O12   O     O_2   0.155950 0.589984 0.385400 -0.511297
O13   O     O_R   0.908370 0.999970 0.448260 -0.564547
O14   O     O_R   0.063864 0.629872 0.356547 -0.772786
O15   O     O_2   0.361528 0.554308 0.852824 -0.485504
O16   O     O_R   0.407701 0.643985 0.877356 -0.710330
O17   O     O_2   0.542187 0.665268 0.860004 -0.528647
O18   O     O_R   0.631529 0.613475 0.879159 -0.790718
O19   O     O_2   0.655243 0.917983 0.609601 -0.628547
O20   O     O_R   0.574497 0.870112 0.653391 -0.715252
O21   O     O_2   0.422032 0.331247 0.126542 -0.612476
O22   O     O_R   0.492337 0.359144 0.199216 -0.791832
O23   O     O_2   0.476356 0.832409 0.283183 -0.538886
O24   O     O_R   0.908370 0.551740 0.999970 -0.630471
O25   O     O_R   0.523183 0.826876 0.375917 -0.704511
O26   O     O_2   0.393831 0.409939 0.857131 -0.522320
O27   O     O_R   0.354384 0.379097 0.948385 -0.808318
O28   O     O_2   0.331742 0.077280 0.625093 -0.605839
O29   O     O_R   0.419653 0.122557 0.656027 -0.758848
O30   O     O_2   0.428452 0.636038 0.132971 -0.479512
O31   O     O_R   0.334107 0.604383 0.104924 -0.722144
O32   O     O_2   0.300497 0.999430 0.373696 -0.562265
O33   O     O_R   0.370682 0.925145 0.357007 -0.744415
O34   O     O_2   0.337203 0.118997 0.395644 -0.586277
O35   O     O_R   0.091630 0.999970 0.551740 -0.603569
O36   O     O_R   0.392978 0.179632 0.458982 -0.738496
O37   O     O_2   0.863272 0.402728 0.624703 -0.607529
O38   O     O_R   0.960060 0.369914 0.648127 -0.777891
O39   O     O_2   0.667629 0.899481 0.389119 -0.595272
O40   O     O_R   0.649362 0.804630 0.427753 -0.767499
O41   O     O_2   0.137961 0.689961 0.453755 -0.502904
O42   O     O_R   0.192365 0.646412 0.531197 -0.719365
O43   O     O_2   0.592966 0.143280 0.390493 -0.591477
O44   O     O_R   0.625552 0.051393 0.351847 -0.789427
O45   O     O_2   0.098271 0.345944 0.622704 -0.565172
O46   O     O_R   0.091630 0.551740 0.000030 -0.631138
O47   O     O_R   0.178185 0.388750 0.572253 -0.805778
O48   O     O_2   0.350382 0.917368 0.621334 -0.617429
O49   O     O_R   0.393196 0.831895 0.580367 -0.726750
O50   O     O_2   0.854921 0.632812 0.440188 -0.512972
O51   O     O_R   0.883329 0.591203 0.349258 -0.766347
O52   O     O_R   0.091630 0.000030 0.448260 -0.572121
O53   O     O_R   0.091630 0.448260 0.999970 -0.600491
O54   O     O_R   0.999970 0.448260 0.908370 -0.586168
O55   O     O_R   0.551740 0.999970 0.908370 -0.623639
O56   O     O_R   0.000030 0.551740 0.908370 -0.567227
O57   O     O_R   0.000030 0.091630 0.551740 -0.562961
O58   O     O_R   0.448260 0.000030 0.908370 -0.591920
O59   O     O_R   0.000030 0.448260 0.091630 -0.568369
O60   O     O_R   0.448260 0.999970 0.091630 -0.600192
O61   O     O_R   0.999970 0.551740 0.091630 -0.598695
O62   O     O_R   0.551740 0.000030 0.091630 -0.604371
O63   O     O_R   0.051740 0.591630 0.499970 -0.601136
O64   O     O_R   0.500030 0.591630 0.051740 -0.564143
O65   O     O_R   0.948260 0.591630 0.500030 -0.576054
O66   O     O_R   0.499970 0.591630 0.948260 -0.583464
O67   O     O_R   0.051740 0.408370 0.500030 -0.631799
O68   O     O_R   0.448260 0.091630 0.000030 -0.574724
O69   O     O_R   0.500030 0.408370 0.948260 -0.617027
O70   O     O_R   0.948260 0.408370 0.499970 -0.598651
O71   O     O_R   0.499970 0.408370 0.051740 -0.628740
O72   O     O_R   0.408370 0.500030 0.051740 -0.594654
O73   O     O_R   0.408370 0.948260 0.500030 -0.610790
O74   O     O_R   0.408370 0.499970 0.948260 -0.565759
O75   O     O_R   0.408370 0.051740 0.499970 -0.633036
O76   O     O_R   0.591630 0.499970 0.051740 -0.603399
O77   O     O_R   0.591630 0.051740 0.500030 -0.632196
O78   O     O_R   0.591630 0.500030 0.948260 -0.571259
O79   O     O_R   0.999970 0.091630 0.448260 -0.581219
O80   O     O_R   0.591630 0.948260 0.499970 -0.609832
O81   O     O_R   0.499970 0.948260 0.408370 -0.635879
O82   O     O_R   0.051740 0.499970 0.408370 -0.623782
O83   O     O_R   0.500030 0.051740 0.408370 -0.558532
O84   O     O_R   0.948260 0.500030 0.408370 -0.592193
O85   O     O_R   0.500030 0.948260 0.591630 -0.566673
O86   O     O_R   0.948260 0.499970 0.591630 -0.597326
O87   O     O_R   0.499970 0.051740 0.591630 -0.597659
O88   O     O_R   0.051740 0.500030 0.591630 -0.609640
O89   O     O_2   0.359318 0.885678 0.887240 -0.570533
O90   O     O_R   0.551740 0.908370 0.000030 -0.630836
O91   O     O_R   0.456689 0.862157 0.859801 -0.770827
O92   O     O_2   0.150246 0.930403 0.370325 -0.556460
O93   O     O_R   0.105653 0.842359 0.405433 -0.793930
O94   O     O_2   0.624428 0.082731 0.174268 -0.626297
O95   O     O_R   0.699839 0.019702 0.141061 -0.741048
O96   O     O_2   0.829293 0.997151 0.644659 -0.549819
O97   O     O_R   0.834468 0.900069 0.681900 -0.783622
O98   O     O_2   0.390814 0.146859 0.100827 -0.541292
O99   O     O_R   0.488428 0.152134 0.136215 -0.807768
O100  O     O_2   0.155254 0.043351 0.646116 -0.541997
O101  O     O_R   0.000030 0.908370 0.448260 -0.617215
O102  O     O_R   0.101883 0.131288 0.628119 -0.716265
O103  O     O_2   0.656342 0.089814 0.885216 -0.510629
O104  O     O_R   0.564238 0.129795 0.856677 -0.774888
O105  O     O_2   0.863164 0.055860 0.353528 -0.480880
O106  O     O_R   0.907976 0.145955 0.379013 -0.711285
O107  O     O_2   0.043885 0.165444 0.361298 -0.527508
O108  O     O_R   0.133085 0.113753 0.381400 -0.789056
O109  O     O_2   0.155849 0.418050 0.110233 -0.633808
O110  O     O_R   0.074604 0.370314 0.153213 -0.719045
O111  O     O_2   0.921586 0.831793 0.626991 -0.612812
O112  O     O_R   0.448260 0.908370 0.999970 -0.600900
O113  O     O_R   0.992142 0.858689 0.699795 -0.792309
O114  O     O_2   0.980859 0.357791 0.827706 -0.551288
O115  O     O_R   0.066134 0.300725 0.836113 -0.689860
O116  O     O_2   0.892290 0.909945 0.357487 -0.520805
O117  O     O_R   0.854706 0.880099 0.449854 -0.809711
O118  O     O_2   0.832631 0.579438 0.125317 -0.605873
O119  O     O_R   0.921021 0.623600 0.156506 -0.757249
O120  O     O_2   0.926381 0.134515 0.631476 -0.482800
O121  O     O_R   0.831455 0.105389 0.602715 -0.725191
O122  O     O_2   0.808626 0.494445 0.877490 -0.574103
O123  O     O_R   0.999970 0.908370 0.551740 -0.628764
O124  O     O_R   0.867287 0.417856 0.839745 -0.707164
O125  O     O_2   0.837414 0.617121 0.895980 -0.583628
O126  O     O_R   0.892170 0.679966 0.958026 -0.738439
O127  O     O_2   0.361206 0.902648 0.121562 -0.604940
O128  O     O_R   0.457836 0.870491 0.146435 -0.760075
O129  O     O_2   0.159953 0.390095 0.893323 -0.630391
O130  O     O_R   0.119596 0.315054 0.953385 -0.735121
O131  O     O_2   0.641860 0.188156 0.957157 -0.505348
O132  O     O_R   0.688456 0.138402 0.036132 -0.719233
O133  O     O_2   0.092740 0.645645 0.895980 -0.589603
O134  O     O_R   0.908370 0.000030 0.551740 -0.594317
O135  O     O_R   0.125117 0.556321 0.851662 -0.799492
O136  O     O_2   0.599434 0.844809 0.120996 -0.566652
O137  O     O_R   0.678126 0.888551 0.069314 -0.802733
O138  O     O_2   0.851629 0.418071 0.122357 -0.618870
O139  O     O_R   0.893963 0.332392 0.081350 -0.726826
O140  O     O_2   0.355209 0.133348 0.940014 -0.516543
O141  O     O_R   0.383485 0.091342 0.849223 -0.766157
O142  O     O_2   0.858255 0.386630 0.386846 -0.570165
O143  O     O_R   0.955519 0.362467 0.359576 -0.769393
O144  O     O_2   0.650651 0.429325 0.871582 -0.559165
Zn1   Zn    Zn3+2 0.569090 0.000000 0.000000 1.097510
Zn2   Zn    Zn3+2 0.500000 0.500000 0.930910 1.129485
Zn3   Zn    Zn3+2 0.500000 0.930910 0.500000 1.096519
Zn4   Zn    Zn3+2 0.500000 0.069090 0.500000 1.101987
Zn5   Zn    Zn3+2 0.000000 0.000000 0.569090 1.133377
Zn6   Zn    Zn3+2 0.430910 0.000000 0.000000 1.141666
Zn7   Zn    Zn3+2 0.000000 0.000000 0.430910 1.130544
Zn8   Zn    Zn3+2 0.000000 0.430910 0.000000 1.137491
Zn9   Zn    Zn3+2 1.000000 0.569090 0.000000 1.105398
Zn10  Zn    Zn3+2 0.069090 0.500000 0.500000 1.091400
Zn11  Zn    Zn3+2 0.500000 0.500000 0.069090 1.133191
Zn12  Zn    Zn3+2 0.930910 0.500000 0.500000 1.142650

loop_
_geom_bond_atom_site_label_1
_geom_bond_atom_site_label_2
_ccdc_geom_bond_type
C9    C218  A    
H69   O139  S    
O60   Zn6   S    
O84   Zn12  S    
C115  O107  D    
C37   C206  A    
H82   O22   S    
C25   H39   S    
C136  O7    S    
C229  H16   S    
C100  C208  S    
C22   H37   S    
C131  O141  S    
O72   Zn11  S    
H47   O95   S    
O1    Zn1   S    
C127  C180  S    
C66   C97   A    
C146  O85   A    
C145  C199  S    
C63   C98   A    
C3    C189  A    
C143  O22   S    
C141  O17   D    
H53   O108  S    
H49   O99   S    
O85   Zn3   S    
H62   O126  S    
C218  H1    S    
C25   C211  A    
C66   C159  A    
C43   C58   A    
C119  O117  S    
C117  C170  S    
C31   C70   A    
C70   C100  A    
C21   C220  A    
C108  O97   S    
C95   C219  S    
C57   C83   S    
C42   C86   A    
C217  H12   S    
H46   O93   S    
C34   C75   A    
C151  O38   S    
C19   H40   S    
C4    H20   S    
C147  C200  S    
C134  O5    S    
C150  C203  S    
C16   C202  A    
C74   C167  A    
C71   C174  A    
C145  O27   S    
C137  O8    D    
C130  O139  S    
C118  O114  D    
C22   C221  A    
C50   C53   A    
C134  C188  S    
C155  C209  S    
C12   H29   S    
C110  O102  S    
C139  C192  S    
C109  C163  S    
O123  Zn5   S    
C197  O2    A    
C221  H7    S    
H51   O104  S    
C35   O63   A    
C79   O72   A    
C116  O109  D    
C140  O15   D    
C188  C240  A    
H55   O113  S    
C163  C216  A    
C42   C190  A    
C228  H4    S    
O56   Zn9   S    
C17   H42   S    
O57   Zn5   S    
O24   Zn9   S    
C71   C102  A    
H64   O130  S    
C10   H31   S    
C147  O29   S    
C230  O56   A    
C152  O40   S    
C39   C85   A    
O83   Zn4   S    
C30   C69   A    
C149  O33   S    
C119  O116  D    
C23   C213  A    
C122  O124  S    
C158  C211  S    
C10   C233  A    
C129  O137  S    
H58   O117  S    
C128  C181  S    
C216  H23   S    
C240  H22   S    
C65   C98   A    
C9    C195  A    
C208  O52   A    
C72   C103  A    
C13   O61   A    
C76   C100  A    
C128  O133  D    
C53   C183  A    
C32   C62   A    
C29   C82   A    
C164  O112  A    
C118  C171  S    
H61   O124  S    
C38   C188  A    
C143  C196  S    
C25   C225  A    
C110  C165  S    
O80   Zn3   S    
C19   C215  A    
O35   Zn5   S    
C154  O43   D    
C78   C146  S    
C11   C214  A    
C158  O51   S    
C8    C235  A    
C30   C202  A    
C156  O49   S    
C126  O130  S    
C73   C170  A    
C59   C169  A    
H84   O27   S    
C123  O126  S    
C6    C222  A    
C84   C135  S    
C142  O20   S    
C48   C193  A    
C109  O99   S    
C138  C191  S    
C110  O100  D    
C168  C221  A    
H74   O7    S    
C61   C96   A    
C114  C167  S    
C13   O59   A    
C61   C182  A    
C26   C78   A    
C38   C86   A    
C127  O131  D    
C136  O6    D    
C130  C183  S    
C122  C176  S    
C226  H2    S    
C29   C205  A    
H87   O33   S    
C17   C203  A    
C87   C101  S    
C153  O41   D    
C181  C234  A    
C64   C99   A    
H54   O110  S    
C157  O86   A    
C230  O54   A    
O59   Zn8   S    
C20   H43   S    
C26   C200  A    
C140  C193  S    
C125  O128  S    
C154  C207  S    
C114  O106  S    
C165  C217  A    
C41   C71   A    
C51   C91   A    
C122  O122  D    
C7    C234  A    
C175  O123  A    
C3    H26   S    
C107  O95   S    
C108  O96   D    
C111  O104  S    
C15   C201  A    
C62   C166  A    
C176  C228  A    
O75   Zn4   S    
C128  O135  S    
C26   C66   A    
C4    C190  A    
C5    C191  A    
C27   C80   A    
H86   O31   S    
C70   C165  A    
C1    O68   A    
C155  O47   S    
H79   O16   S    
C63   C180  A    
C96   C164  S    
O79   Zn7   S    
C93   C197  S    
C60   C95   A    
C112  O79   A    
C10   C196  A    
C62   C97   A    
C135  O84   A    
H44   O91   S    
C169  C222  A    
C150  O36   S    
C24   O60   A    
C41   C204  A    
C224  C240  A    
C50   C87   A    
C215  H78   S    
C107  O94   D    
H60   O121  S    
C107  C161  S    
C45   C89   A    
C94   C230  S    
O62   Zn1   S    
C35   O65   A    
H76   O11   S    
C60   C181  A    
C33   C207  A    
C68   O69   A    
O64   Zn11  S    
C15   C231  A    
C36   C192  A    
C55   C179  A    
O73   Zn3   S    
C82   C113  S    
C64   C161  A    
C152  O39   D    
C67   C178  A    
C132  C185  S    
C16   H30   S    
C23   C210  A    
C183  C236  A    
C236  C239  A    
C136  C189  S    
C11   C198  A    
H57   O115  S    
C227  H89   S    
C35   C85   S    
O87   Zn4   S    
C44   C201  A    
C18   H41   S    
C144  O25   S    
O101  Zn7   S    
C139  O14   S    
H73   O5    S    
H50   O102  S    
H52   O106  S    
H48   O97   S    
C86   C157  S    
C152  C205  S    
C79   C89   S    
C133  C187  S    
C137  C190  S    
C2    O58   A    
C120  O118  D    
C45   C55   A    
O65   Zn12  S    
C125  C178  S    
C72   C162  A    
C44   C67   A    
C18   C204  A    
C235  H10   S    
O81   Zn3   S    
C115  C168  S    
C149  C202  S    
C65   C184  A    
C151  O37   D    
C129  C182  S    
C40   C84   A    
C102  C112  S    
C151  C204  S    
C123  C177  S    
C36   C59   A    
C57   O70   A    
C31   C80   A    
C121  O120  D    
C145  O26   D    
C223  H5    S    
C56   C94   A    
C118  O115  S    
C155  O45   D    
H72   O3    S    
C237  H13   S    
C58   C93   A    
C101  O78   A    
C15   H27   S    
C47   C63   A    
C135  O82   A    
C49   C194  A    
O76   Zn11  S    
O70   Zn12  S    
C5    H19   S    
C138  O10   D    
C51   C65   A    
C16   C216  A    
O46   Zn9   S    
C116  O110  S    
C140  O16   S    
C42   C56   A    
C213  H56   S    
C224  H8    S    
C156  O48   D    
C2    C97   S    
C142  C195  S    
C8    C194  A    
C75   C168  A    
O54   Zn8   S    
C231  H15   S    
C33   C82   A    
O78   Zn2   S    
C8    H33   S    
C219  O53   A    
O13   Zn7   S    
C68   O71   A    
C79   O74   A    
C115  O108  S    
C49   C88   A    
C32   C195  A    
H90   O38   S    
H94   O47   S    
C186  O134  A    
C214  H45   S    
C186  O13   A    
C113  O80   A    
C133  O3    S    
C49   C61   A    
C220  H34   S    
C47   C196  A    
C117  O113  S    
C141  O18   S    
H77   O14   S    
H83   O25   S    
H70   O141  S    
C131  C184  S    
C90   O75   A    
C14   C200  A    
C139  O12   D    
C27   C210  A    
C28   C198  A    
C159  C212  A    
C1    C98   S    
C132  O143  S    
C23   H36   S    
C164  O90   A    
C121  C174  S    
C38   C54   A    
O71   Zn11  S    
C232  H14   S    
C126  C179  S    
C105  O89   D    
C182  C235  A    
C28   C64   A    
C12   C237  A    
C56   C176  A    
C180  C233  A    
C13   C92   S    
C52   C92   A    
C134  O4    D    
C27   C76   A    
C184  C237  A    
C120  O119  S    
C123  O125  D    
C137  O9    S    
C130  O138  D    
O2    Zn8   S    
O55   Zn1   S    
C47   C91   A    
C109  O98   D    
C187  C239  A    
C148  O30   D    
C225  H3    S    
C144  O23   D    
C14   C212  A    
C6    H18   S    
H92   O42   S    
C30   C81   A    
C178  C231  A    
H93   O44   S    
C21   H38   S    
C222  H6    S    
C105  C159  S    
H66   O135  S    
C77   C172  A    
C106  C160  S    
H65   O132  S    
C20   C223  A    
C59   C92   A    
C4    C228  A    
C170  C223  A    
C33   C74   A    
C161  C214  A    
O61   Zn9   S    
C197  O24   A    
C6    C192  A    
C77   C104  A    
C179  C232  A    
O134  Zn5   S    
C125  O127  D    
C143  O21   D    
C131  O140  D    
H95   O49   S    
C226  C238  A    
C24   C99   S    
C20   C206  A    
C236  H9    S    
C174  C227  A    
C111  O103  D    
C171  C224  A    
C90   O73   A    
O112  Zn6   S    
H68   O137  S    
H63   O128  S    
O74   Zn2   S    
C39   C77   A    
O63   Zn10  S    
C37   C85   A    
C173  C226  A    
C57   O67   A    
C177  C229  A    
C41   C83   A    
C22   C209  A    
C68   C91   S    
C157  O88   A    
C124  O81   A    
H75   O9    S    
C234  H11   S    
C105  O91   S    
O77   Zn4   S    
C158  O50   D    
C106  O92   D    
C73   C104  A    
C126  O129  D    
C116  C169  S    
C75   C102  A    
C7    H21   S    
C219  O46   A    
C7    C193  A    
C166  C218  A    
C31   C203  A    
C2    O55   A    
C119  C172  S    
C29   C72   A    
C129  O136  D    
H80   O18   S    
C43   C191  A    
C142  O19   D    
H96   O51   S    
O69   Zn2   S    
C46   O66   A    
C103  C186  S    
H85   O29   S    
C50   C187  A    
C112  O57   A    
C106  O93   S    
C14   H28   S    
C148  C201  S    
C48   C60   A    
C104  C175  S    
C46   C88   S    
C162  C215  A    
O86   Zn12  S    
C81   C124  S    
C53   C93   A    
C127  O132  S    
O58   Zn6   S    
C55   C95   A    
C154  O44   S    
C150  O34   D    
C233  H17   S    
C40   C185  A    
O66   Zn2   S    
C113  O77   A    
C40   C52   A    
C108  C162  S    
C18   C227  A    
C212  H67   S    
C146  O87   A    
C34   C209  A    
C153  O42   S    
C185  C238  A    
C147  O28   D    
C39   C211  A    
C111  C166  S    
C172  C225  A    
C11   H35   S    
C114  O105  D    
C51   C199  A    
C132  O142  D    
C45   C189  A    
C133  O144  D    
C32   C78   A    
C48   C89   A    
C67   C96   A    
C5    C229  A    
C239  H24   S    
O68   Zn6   S    
C34   C83   A    
C1    O1    A    
O52   Zn7   S    
C69   C99   A    
C167  C220  A    
C17   C217  A    
O88   Zn10  S    
H71   O143  S    
C37   C73   A    
C76   C160  A    
C117  O111  D    
C28   C81   A    
C54   C171  A    
C9    H32   S    
C238  H25   S    
H91   O40   S    
C69   C163  A    
H81   O20   S    
C24   O62   A    
C3    C232  A    
H59   O119  S    
C148  O31   S    
H88   O36   S    
C175  O101  A    
C124  O83   A    
C43   C87   A    
C21   C207  A    
O53   Zn8   S    
C36   C84   A    
C160  C213  A    
C12   C199  A    
C138  O11   S    
C58   C177  A    
C141  C194  S    
C208  O35   A    
C80   C90   S    
C54   C94   A    
C121  O121  S    
C153  C206  S    
O82   Zn10  S    
O67   Zn10  S    
C120  C173  S    
C149  O32   D    
C144  C198  S    
O90   Zn1   S    
C19   C205  A    
C156  C210  S    
C46   O64   A    
C101  O76   A    
C44   C88   A    
C52   C173  A    
C74   C103  A    
