data_mof_unit_1350.cif
_audit_creation_date              2012-12-11T15:22:31-0500
_audit_creation_method            fapswitch 2.2
_symmetry_space_group_name_H-M    P1
_symmetry_Int_Tables_number       1
_space_group_crystal_system       triclinic
_cell_length_a                    22.438321
_cell_length_b                    12.960049
_cell_length_c                    26.977031
_cell_angle_alpha                 89.999984
_cell_angle_beta                  90.29744
_cell_angle_gamma                 89.99997
_cell_volume                      7844.86183565

loop_
_atom_site_label
_atom_site_type_symbol
_atom_type_description
_atom_site_fract_x
_atom_site_fract_y
_atom_site_fract_z
_atom_type_partial_charge
C1    C     C_R   0.720821 0.345105 0.178253 0.541613
C2    C     C_R   0.279179 0.345105 0.821747 0.541613
C3    C     C_R   0.220821 0.845105 0.178253 0.541612
C4    C     C_R   0.779179 0.845105 0.821747 0.541613
C5    C     C_R   0.473777 0.162684 0.871993 -0.005179
C6    C     C_R   0.526222 0.162686 0.128007 -0.005180
C7    C     C_R   0.973777 0.662685 0.871993 -0.005179
C8    C     C_R   0.026222 0.662686 0.128007 -0.005180
C9    C     C_R   0.520608 0.257300 0.102865 -0.135176
C10   C     C_R   0.479393 0.257299 0.897135 -0.135176
C11   C     C_R   0.020608 0.757300 0.102865 -0.135177
C12   C     C_R   0.979393 0.757299 0.897135 -0.135176
C13   C     C_R   0.508967 0.258703 0.051745 0.014609
C14   C     C_R   0.491034 0.258702 0.948255 0.014609
C15   C     C_R   0.008967 0.758703 0.051745 0.014608
C16   C     C_R   0.991034 0.758702 0.948255 0.014609
C17   C     C_R   0.503784 0.164452 0.025849 0.064289
C18   C     C_R   0.496213 0.164452 0.974152 0.064289
C19   C     C_R   0.003784 0.664452 0.025849 0.064289
C20   C     C_R   0.996213 0.664452 0.974152 0.064289
C21   C     C_R   0.504748 0.352179 0.025663 -0.138148
C22   C     C_R   0.495257 0.352179 0.974336 -0.138148
C23   C     C_R   0.004748 0.852179 0.025663 -0.138148
C24   C     C_R   0.995257 0.852179 0.974336 -0.138148
C25   C     C_R   0.739378 0.957090 0.129898 0.023289
C26   C     C_R   0.260622 0.957090 0.870102 0.023289
C27   C     C_R   0.239378 0.457089 0.129899 0.023289
C28   C     C_R   0.760622 0.457090 0.870102 0.023289
C29   C     C_R   0.794299 0.965373 0.105653 -0.131685
C30   C     C_R   0.205701 0.965375 0.894347 -0.131686
C31   C     C_R   0.294299 0.465378 0.105652 -0.131684
C32   C     C_R   0.705701 0.465375 0.894347 -0.131685
C33   C     C_R   0.797887 0.946424 0.054928 -0.119816
C34   C     C_R   0.202113 0.946427 0.945072 -0.119816
C35   C     C_R   0.297887 0.446429 0.054928 -0.119816
C36   C     C_R   0.702113 0.446427 0.945072 -0.119816
C37   C     C_R   0.746440 0.920399 0.027715 0.036843
C38   C     C_R   0.253561 0.920401 0.972285 0.036844
C39   C     C_R   0.246440 0.420398 0.027715 0.036844
C40   C     C_R   0.753561 0.420400 0.972285 0.036844
C41   C     C_R   0.692378 0.906120 0.052612 -0.121827
C42   C     C_R   0.307623 0.906119 0.947388 -0.121826
C43   C     C_R   0.192379 0.406112 0.052613 -0.121825
C44   C     C_R   0.807623 0.406119 0.947388 -0.121826
C45   C     C_R   0.553785 0.157236 0.177461 0.544694
C46   C     C_R   0.446215 0.157236 0.822539 0.544694
C47   C     C_R   0.053785 0.657236 0.177461 0.544694
C48   C     C_R   0.946214 0.657235 0.822539 0.544691
C49   C     C_R   0.689016 0.923199 0.103313 -0.126331
C50   C     C_R   0.310984 0.923197 0.896687 -0.126331
C51   C     C_R   0.189018 0.423190 0.103314 -0.126331
C52   C     C_R   0.810983 0.423197 0.896687 -0.126330
C53   C     C_R   0.716007 0.832596 0.949390 -0.119008
C54   C     C_R   0.283994 0.832597 0.050610 -0.119008
C55   C     C_R   0.216009 0.332592 0.949390 -0.119008
C56   C     C_R   0.783994 0.332597 0.050610 -0.119008
C57   C     C_R   0.721603 0.818010 0.898621 -0.126100
C58   C     C_R   0.278398 0.818011 0.101380 -0.126100
C59   C     C_R   0.221605 0.318006 0.898621 -0.126099
C60   C     C_R   0.778398 0.318011 0.101380 -0.126100
C61   C     C_R   0.790954 0.961240 0.894510 -0.125648
C62   C     C_R   0.209047 0.961241 0.105490 -0.125648
C63   C     C_R   0.290952 0.461241 0.894510 -0.125648
C64   C     C_R   0.709047 0.461240 0.105490 -0.125648
C65   C     C_R   0.784579 0.976917 0.945261 -0.115948
C66   C     C_R   0.215422 0.976918 0.054739 -0.115948
C67   C     C_R   0.284577 0.476919 0.945261 -0.115948
C68   C     C_R   0.715422 0.476918 0.054739 -0.115948
C69   C     C_R   0.748794 0.910222 0.973397 0.038780
C70   C     C_R   0.251207 0.910223 0.026603 0.038781
C71   C     C_R   0.248793 0.410221 0.973397 0.038780
C72   C     C_R   0.751207 0.410223 0.026603 0.038780
C73   C     C_R   0.761010 0.879489 0.871150 0.023310
C74   C     C_R   0.238990 0.879490 0.128850 0.023310
C75   C     C_R   0.261010 0.379488 0.871150 0.023309
C76   C     C_R   0.738990 0.379489 0.128850 0.023310
C77   C     C_R   0.518411 0.170046 0.368624 0.022848
C78   C     C_R   0.481586 0.170044 0.631375 0.022852
C79   C     C_R   0.018414 0.670045 0.368626 0.022853
C80   C     C_R   0.981589 0.670046 0.631376 0.022854
C81   C     C_R   0.519616 0.265709 0.394856 -0.010315
C82   C     C_R   0.480383 0.265707 0.605143 -0.010299
C83   C     C_R   0.019617 0.765708 0.394857 -0.010304
C84   C     C_R   0.980386 0.765709 0.605145 -0.010310
C85   C     C_R   0.517893 0.263781 0.446737 -0.102876
C86   C     C_R   0.482097 0.263780 0.553263 -0.102881
C87   C     C_R   0.017900 0.763783 0.446738 -0.102879
C88   C     C_R   0.982107 0.763783 0.553265 -0.102879
C89   C     C_R   0.731270 0.001866 0.179327 0.542870
C90   C     C_R   0.268730 0.001866 0.820673 0.542870
C91   C     C_R   0.231270 0.501866 0.179327 0.542869
C92   C     C_R   0.768731 0.501866 0.820673 0.542870
C93   C     C_R   0.501893 0.174371 0.472468 0.006809
C94   C     C_R   0.498090 0.174369 0.527529 0.006808
C95   C     C_R   0.001907 0.674372 0.472471 0.006810
C96   C     C_R   0.998105 0.674373 0.527532 0.006809
C97   C     C_R   0.486995 0.085998 0.445270 -0.112738
C98   C     C_R   0.512988 0.085994 0.554726 -0.112741
C99   C     C_R   0.987010 0.585996 0.445274 -0.112738
C100  C     C_R   0.013003 0.585999 0.554731 -0.112740
C101  C     C_R   0.495293 0.081616 0.393727 -0.008864
C102  C     C_R   0.504697 0.081612 0.606269 -0.008864
C103  C     C_R   0.995303 0.581613 0.393731 -0.008863
C104  C     C_R   0.004706 0.581617 0.606274 -0.008866
C105  C     C_R   0.739365 0.957193 0.372174 0.025935
C106  C     C_R   0.260635 0.957195 0.627826 0.025935
C107  C     C_R   0.239370 0.457183 0.372171 0.025936
C108  C     C_R   0.760635 0.457195 0.627826 0.025936
C109  C     C_R   0.688671 0.924190 0.398010 -0.126668
C110  C     C_R   0.311331 0.924198 0.601989 -0.126667
C111  C     C_R   0.188677 0.424169 0.398007 -0.126669
C112  C     C_R   0.811329 0.424189 0.601990 -0.126667
C113  C     C_R   0.691309 0.910222 0.448787 -0.123712
C114  C     C_R   0.308693 0.910230 0.551212 -0.123712
C115  C     C_R   0.191318 0.410192 0.448783 -0.123711
C116  C     C_R   0.808692 0.410221 0.551213 -0.123710
C117  C     C_R   0.745120 0.925545 0.474294 0.039769
C118  C     C_R   0.254881 0.925548 0.525705 0.039769
C119  C     C_R   0.245130 0.425519 0.474289 0.039769
C120  C     C_R   0.754881 0.425548 0.525705 0.039770
C121  C     C_R   0.797101 0.949322 0.447818 -0.122982
C122  C     C_R   0.202899 0.949320 0.552182 -0.122983
C123  C     C_R   0.297109 0.449305 0.447812 -0.122983
C124  C     C_R   0.702900 0.449329 0.552181 -0.122985
C125  C     C_R   0.794089 0.966122 0.397003 -0.136292
C126  C     C_R   0.205910 0.966118 0.602997 -0.136293
C127  C     C_R   0.294095 0.466111 0.396998 -0.136284
C128  C     C_R   0.705911 0.466128 0.602996 -0.136296
C129  C     C_R   0.783336 0.983214 0.556600 -0.120783
C130  C     C_R   0.216662 0.983215 0.443399 -0.120783
C131  C     C_R   0.283340 0.483197 0.556595 -0.120782
C132  C     C_R   0.716666 0.483218 0.443399 -0.120783
C133  C     C_R   0.721255 0.347609 0.321584 0.543447
C134  C     C_R   0.278746 0.347607 0.678415 0.543451
C135  C     C_R   0.221255 0.847609 0.321584 0.543450
C136  C     C_R   0.778745 0.847609 0.678416 0.543448
C137  C     C_R   0.790173 0.966722 0.607205 -0.134191
C138  C     C_R   0.209825 0.966722 0.392795 -0.134188
C139  C     C_R   0.290174 0.466712 0.607201 -0.134186
C140  C     C_R   0.709829 0.466724 0.392794 -0.134194
C141  C     C_R   0.718563 0.826581 0.602669 -0.129625
C142  C     C_R   0.281439 0.826587 0.397330 -0.129626
C143  C     C_R   0.218576 0.326553 0.602663 -0.129636
C144  C     C_R   0.781437 0.326581 0.397331 -0.129626
C145  C     C_R   0.712799 0.841471 0.552133 -0.123780
C146  C     C_R   0.287204 0.841477 0.447866 -0.123781
C147  C     C_R   0.212815 0.341436 0.552127 -0.123781
C148  C     C_R   0.787202 0.341472 0.447866 -0.123781
C149  C     C_R   0.746706 0.917449 0.528425 0.038540
C150  C     C_R   0.253295 0.917453 0.471574 0.038541
C151  C     C_R   0.246717 0.417422 0.528420 0.038541
C152  C     C_R   0.753295 0.417452 0.471574 0.038540
C153  C     C_R   0.759655 0.885427 0.630031 0.024209
C154  C     C_R   0.240345 0.885429 0.369968 0.024209
C155  C     C_R   0.259659 0.385414 0.630027 0.024215
C156  C     C_R   0.740346 0.385428 0.369969 0.024208
C157  C     C_R   0.551957 0.159204 0.320929 0.529944
C158  C     C_R   0.448043 0.159204 0.679071 0.529945
C159  C     C_R   0.051957 0.659204 0.320929 0.529945
C160  C     C_R   0.948043 0.659204 0.679071 0.529938
C161  C     C_R   0.731518 0.002117 0.323062 0.545228
C162  C     C_R   0.268482 0.002118 0.676938 0.545227
C163  C     C_R   0.231519 0.502115 0.323061 0.545230
C164  C     C_R   0.768482 0.502118 0.676938 0.545229
C165  C     C_R   0.516166 0.069836 0.102432 -0.132876
C166  C     C_R   0.483828 0.069835 0.897569 -0.132874
C167  C     C_R   0.016166 0.569836 0.102432 -0.132874
C168  C     C_R   0.983828 0.569835 0.897569 -0.132874
C169  C     C_R   0.506848 0.069847 0.051514 0.012677
C170  C     C_R   0.493145 0.069846 0.948488 0.012677
C171  C     C_R   0.006848 0.569846 0.051514 0.012677
C172  C     C_R   0.993145 0.569846 0.948488 0.012677
C173  C     C_R   0.496835 0.976328 0.974349 -0.139485
C174  C     C_R   0.503155 0.976329 0.025654 -0.139485
C175  C     C_R   0.996834 0.476328 0.974349 -0.139485
C176  C     C_R   0.003154 0.476328 0.025654 -0.139484
Cr1   Cr    Cr6+3 0.756570 0.170940 0.251190 1.000271
Cr2   Cr    Cr6+3 0.243430 0.170940 0.748810 1.000269
Cr3   Cr    Cr6+3 0.256570 0.670940 0.251190 1.000271
Cr4   Cr    Cr6+3 0.743430 0.670940 0.748810 1.000269
Cr5   Cr    Cr6+3 0.623740 0.299110 0.249580 0.998573
Cr6   Cr    Cr6+3 0.376260 0.299110 0.750420 0.998577
Cr7   Cr    Cr6+3 0.123740 0.799110 0.249580 0.998577
Cr8   Cr    Cr6+3 0.876260 0.799110 0.750420 0.998574
Cr9   Cr    Cr6+3 0.625990 0.036240 0.250480 0.998941
Cr10  Cr    Cr6+3 0.374010 0.036240 0.749520 0.998940
Cr11  Cr    Cr6+3 0.125990 0.536240 0.250480 0.998942
Cr12  Cr    Cr6+3 0.874010 0.536240 0.749520 0.998943
H1    H     H_    0.821408 0.009878 0.874035 0.121117
H2    H     H_    0.178592 0.009879 0.125966 0.121116
H3    H     H_    0.321405 0.509882 0.874034 0.121115
H4    H     H_    0.678592 0.509879 0.125965 0.121116
H5    H     H_    0.651921 0.886788 0.032614 0.104567
H6    H     H_    0.348079 0.886785 0.967385 0.104566
H7    H     H_    0.151923 0.386774 0.032616 0.104565
H8    H     H_    0.848079 0.386785 0.967385 0.104566
H9    H     H_    0.645848 0.916959 0.120859 0.129360
H10   H     H_    0.354151 0.916955 0.879140 0.129358
H11   H     H_    0.145850 0.416945 0.120861 0.129358
H12   H     H_    0.854151 0.416954 0.879140 0.129358
H13   H     H_    0.530321 0.019213 0.535423 0.096705
H14   H     H_    0.469657 0.019219 0.464571 0.096706
H15   H     H_    0.030339 0.519219 0.535429 0.096707
H16   H     H_    0.969677 0.519215 0.464577 0.096706
H17   H     H_    0.528777 0.333276 0.466974 0.097059
H18   H     H_    0.471216 0.333280 0.533027 0.097057
H19   H     H_    0.028781 0.833282 0.466973 0.097057
H20   H     H_    0.971226 0.833281 0.533028 0.097059
H21   H     H_    0.645676 0.917277 0.379844 0.127883
H22   H     H_    0.354326 0.917288 0.620154 0.127884
H23   H     H_    0.145682 0.417254 0.379842 0.127877
H24   H     H_    0.854323 0.417272 0.620157 0.127881
H25   H     H_    0.808308 0.044816 0.539264 0.100334
H26   H     H_    0.191689 0.044814 0.460736 0.100331
H27   H     H_    0.308309 0.544803 0.539259 0.100334
H28   H     H_    0.691694 0.544821 0.460734 0.100334
H29   H     H_    0.821704 0.013525 0.627816 0.116727
H30   H     H_    0.178292 0.013523 0.372184 0.116728
H31   H     H_    0.321700 0.513525 0.627813 0.116724
H32   H     H_    0.678297 0.513528 0.372183 0.116727
H33   H     H_    0.494056 0.903228 0.954959 0.097283
H34   H     H_    0.505931 0.903229 0.045044 0.097284
H35   H     H_    0.994055 0.403228 0.954959 0.097283
H36   H     H_    0.005930 0.403229 0.045044 0.097285
H37   H     H_    0.650472 0.892584 0.468247 0.095599
H38   H     H_    0.349530 0.892597 0.531752 0.095598
H39   H     H_    0.150483 0.392547 0.468243 0.095598
H40   H     H_    0.849528 0.392581 0.531754 0.095598
H41   H     H_    0.684475 0.789252 0.531360 0.096816
H42   H     H_    0.315530 0.789261 0.468639 0.096816
H43   H     H_    0.184497 0.289209 0.531354 0.096821
H44   H     H_    0.815525 0.289253 0.468640 0.096817
H45   H     H_    0.694594 0.762914 0.619293 0.128804
H46   H     H_    0.305410 0.762921 0.380706 0.128805
H47   H     H_    0.194611 0.262880 0.619287 0.128810
H48   H     H_    0.805405 0.262913 0.380707 0.128808
H49   H     H_    0.839617 0.958018 0.466543 0.097456
H50   H     H_    0.160383 0.958012 0.533457 0.097454
H51   H     H_    0.339625 0.458003 0.466537 0.097453
H52   H     H_    0.660384 0.458027 0.533456 0.097455
H53   H     H_    0.471712 0.329205 0.877590 0.121804
H54   H     H_    0.528293 0.329206 0.122410 0.121807
H55   H     H_    0.971712 0.829206 0.877590 0.121805
H56   H     H_    0.028293 0.829206 0.122410 0.121807
H57   H     H_    0.491309 0.425205 0.955043 0.099859
H58   H     H_    0.508699 0.425206 0.044956 0.099859
H59   H     H_    0.991309 0.925205 0.955043 0.099859
H60   H     H_    0.008699 0.925206 0.044956 0.099859
H61   H     H_    0.833769 0.991069 0.125368 0.119805
H62   H     H_    0.166231 0.991073 0.874633 0.119805
H63   H     H_    0.333769 0.491079 0.125366 0.119806
H64   H     H_    0.666231 0.491072 0.874633 0.119805
H65   H     H_    0.688331 0.779681 0.970126 0.098554
H66   H     H_    0.311670 0.779682 0.029874 0.098553
H67   H     H_    0.188334 0.279675 0.970127 0.098554
H68   H     H_    0.811670 0.279682 0.029874 0.098553
H69   H     H_    0.698383 0.753628 0.881696 0.132358
H70   H     H_    0.301618 0.753629 0.118305 0.132357
H71   H     H_    0.198386 0.253622 0.881697 0.132359
H72   H     H_    0.801618 0.253629 0.118305 0.132358
H73   H     H_    0.840562 0.954780 0.036789 0.105732
H74   H     H_    0.159439 0.954785 0.963212 0.105731
H75   H     H_    0.340561 0.454790 0.036788 0.105730
H76   H     H_    0.659439 0.454784 0.963212 0.105731
H77   H     H_    0.808862 0.039489 0.962686 0.099822
H78   H     H_    0.191139 0.039491 0.037314 0.099821
H79   H     H_    0.308858 0.539493 0.962685 0.099822
H80   H     H_    0.691139 0.539490 0.037314 0.099821
O1    O     O_R   0.769900 0.064540 0.196060 -0.523771
O2    O     O_R   0.230100 0.064540 0.803940 -0.523772
O3    O     O_R   0.269900 0.564540 0.196060 -0.523772
O4    O     O_R   0.730100 0.564540 0.803940 -0.523771
O5    O     O_R   0.574760 0.239320 0.300850 -0.511110
O6    O     O_R   0.425240 0.239320 0.699150 -0.511107
O7    O     O_R   0.074760 0.739320 0.300850 -0.511106
O8    O     O_R   0.925240 0.739320 0.699150 -0.511108
O9    O     O_R   0.566290 0.069580 0.305400 -0.524461
O10   O     O_R   0.433710 0.069580 0.694600 -0.524462
O11   O     O_R   0.066290 0.569580 0.305400 -0.524460
O12   O     O_R   0.933710 0.569580 0.694600 -0.524462
O13   O     O_R   0.680760 0.993330 0.302620 -0.506532
O14   O     O_R   0.319240 0.993330 0.697380 -0.506532
O15   O     O_R   0.180760 0.493330 0.302620 -0.506532
O16   O     O_R   0.819240 0.493330 0.697380 -0.506530
O17   O     O_3   0.668770 0.168760 0.250420 -0.228035
O18   O     O_3   0.331230 0.168760 0.749580 -0.228036
O19   O     O_3   0.168770 0.668760 0.250420 -0.228035
O20   O     O_3   0.831230 0.668760 0.749580 -0.228035
O21   O     O_R   0.750800 0.274080 0.199250 -0.507312
O22   O     O_R   0.249200 0.274080 0.800750 -0.507311
O23   O     O_R   0.250800 0.774080 0.199250 -0.507313
O24   O     O_R   0.749200 0.774080 0.800750 -0.507312
O25   O     O_R   0.669990 0.371670 0.194150 -0.520061
O26   O     O_R   0.330010 0.371670 0.805850 -0.520061
O27   O     O_R   0.169990 0.871670 0.194150 -0.520062
O28   O     O_R   0.830010 0.871670 0.805850 -0.520061
O29   O     O_R   0.574600 0.238480 0.197800 -0.502066
O30   O     O_R   0.425400 0.238480 0.802200 -0.502068
O31   O     O_R   0.074600 0.738480 0.197800 -0.502067
O32   O     O_R   0.925400 0.738480 0.802200 -0.502067
O33   O     O_R   0.566130 0.068680 0.194240 -0.528305
O34   O     O_R   0.433870 0.068680 0.805760 -0.528306
O35   O     O_R   0.066130 0.568680 0.194240 -0.528304
O36   O     O_R   0.933870 0.568680 0.805760 -0.528306
O37   O     O_R   0.680610 0.992490 0.199570 -0.505575
O38   O     O_R   0.319390 0.992490 0.800430 -0.505575
O39   O     O_R   0.180610 0.492490 0.199570 -0.505575
O40   O     O_R   0.819390 0.492490 0.800430 -0.505575
O41   O     O_R   0.770060 0.065440 0.307230 -0.523882
O42   O     O_R   0.229940 0.065440 0.692770 -0.523884
O43   O     O_R   0.270060 0.565440 0.307230 -0.523882
O44   O     O_R   0.729940 0.565440 0.692770 -0.523884
O45   O     O_R   0.750960 0.274920 0.302300 -0.508024
O46   O     O_R   0.249040 0.274920 0.697700 -0.508028
O47   O     O_R   0.250960 0.774920 0.302300 -0.508024
O48   O     O_R   0.749040 0.774920 0.697700 -0.508025
O49   O     O_R   0.670160 0.372580 0.305320 -0.526003
O50   O     O_R   0.329840 0.372580 0.694680 -0.525988
O51   O     O_R   0.170160 0.872580 0.305320 -0.525995
O52   O     O_R   0.829840 0.872580 0.694680 -0.525999
H81   H     H_    0.479934 0.996375 0.878573 0.125571
H82   H     H_    0.520058 0.996377 0.121429 0.125570
H83   H     H_    0.979933 0.496375 0.878573 0.125572
H84   H     H_    0.020058 0.496377 0.121429 0.125571
C177  C     C_3   0.521982 0.370612 0.369343 -0.237575
C178  C     C_3   0.475710 0.446872 0.390093 -0.322952
C179  C     C_3   0.471747 0.544524 0.358565 -0.462515
H85   H     H_    0.515860 0.583268 0.356999 0.148355
H86   H     H_    0.456736 0.525434 0.320350 0.151581
H87   H     H_    0.439054 0.598622 0.375166 0.136283
H88   H     H_    0.431191 0.409349 0.390913 0.166521
H89   H     H_    0.487822 0.470227 0.428433 0.146870
H90   H     H_    0.567470 0.403581 0.373467 0.161974
H91   H     H_    0.511016 0.362873 0.329443 0.169870
C180  C     C_3   0.478035 0.370614 0.630655 -0.237570
C181  C     C_3   0.524351 0.446818 0.609921 -0.322898
C182  C     C_3   0.528318 0.544485 0.641440 -0.462460
H92   H     H_    0.484211 0.583280 0.642975 0.148331
H93   H     H_    0.543291 0.525398 0.679671 0.151570
H94   H     H_    0.561046 0.598540 0.624849 0.136279
H95   H     H_    0.568862 0.409245 0.609132 0.166510
H96   H     H_    0.512280 0.470165 0.571567 0.146858
H97   H     H_    0.432561 0.403632 0.626508 0.161913
H98   H     H_    0.488972 0.362874 0.670561 0.169881
C183  C     C_3   0.021971 0.870613 0.369344 -0.237590
C184  C     C_3   0.975672 0.946837 0.390083 -0.322963
C185  C     C_3   0.971706 0.044501 0.358564 -0.462536
H99   H     H_    0.015811 0.083265 0.357012 0.148357
H100  H     H_    0.956713 0.025420 0.320345 0.151590
H101  H     H_    0.939000 0.098578 0.375160 0.136284
H102  H     H_    0.931162 0.909286 0.390882 0.166532
H103  H     H_    0.987758 0.970181 0.428430 0.146884
H104  H     H_    0.067449 0.903613 0.373482 0.161942
H105  H     H_    0.011023 0.862874 0.329441 0.169885
C186  C     C_3   0.978028 0.870613 0.630659 -0.237578
C187  C     C_3   0.024310 0.946858 0.609912 -0.322952
C188  C     C_3   0.028288 0.044504 0.641443 -0.462515
H106  H     H_    0.984180 0.083262 0.643016 0.148355
H107  H     H_    0.043304 0.025402 0.679655 0.151586
H108  H     H_    0.060984 0.098593 0.624841 0.136286
H109  H     H_    0.068824 0.909316 0.609089 0.166526
H110  H     H_    0.012199 0.970223 0.571573 0.146871
H111  H     H_    0.932544 0.903596 0.626532 0.161959
H112  H     H_    0.988988 0.862870 0.670560 0.169872
C189  C     C_3   0.523028 0.982576 0.632549 -0.245121
C190  C     C_3   0.572547 0.002417 0.670863 -0.286183
C191  C     C_3   0.591743 0.902545 0.696341 -0.440632
H113  H     H_    0.553718 0.868444 0.716837 0.147557
H114  H     H_    0.608031 0.846006 0.668609 0.146919
H115  H     H_    0.628365 0.918964 0.723045 0.149193
H116  H     H_    0.611817 0.036789 0.652052 0.165395
H117  H     H_    0.557006 0.057425 0.699596 0.169640
H118  H     H_    0.484195 0.943944 0.649620 0.169426
H119  H     H_    0.540381 0.925591 0.605358 0.119051
C192  C     C_3   0.476963 0.982583 0.367445 -0.245121
C193  C     C_3   0.427448 0.002428 0.329127 -0.286181
C194  C     C_3   0.408255 0.902558 0.303646 -0.440632
H120  H     H_    0.446282 0.868459 0.283152 0.147558
H121  H     H_    0.391964 0.846017 0.331376 0.146921
H122  H     H_    0.371636 0.918980 0.276939 0.149191
H123  H     H_    0.388177 0.036800 0.347936 0.165395
H124  H     H_    0.442994 0.057438 0.300397 0.169641
H125  H     H_    0.515797 0.943948 0.350377 0.169427
H126  H     H_    0.459605 0.925598 0.394634 0.119051
C195  C     C_3   0.023036 0.482583 0.632555 -0.245123
C196  C     C_3   0.072539 0.502430 0.670884 -0.286200
C197  C     C_3   0.091756 0.402551 0.696344 -0.440656
H127  H     H_    0.053729 0.368369 0.716801 0.147549
H128  H     H_    0.108097 0.346079 0.668607 0.146951
H129  H     H_    0.128342 0.418981 0.723078 0.149188
H130  H     H_    0.111803 0.536853 0.652090 0.165394
H131  H     H_    0.056973 0.557395 0.699625 0.169666
H132  H     H_    0.984199 0.443942 0.649615 0.169412
H133  H     H_    0.040404 0.425606 0.605367 0.119071
C198  C     C_3   0.976973 0.482577 0.367451 -0.245120
C199  C     C_3   0.927455 0.502415 0.329136 -0.286183
C200  C     C_3   0.908260 0.402542 0.303659 -0.440634
H134  H     H_    0.946286 0.368439 0.283165 0.147557
H135  H     H_    0.891970 0.346006 0.331391 0.146921
H136  H     H_    0.871641 0.418960 0.276952 0.149192
H137  H     H_    0.888185 0.536788 0.347946 0.165396
H138  H     H_    0.942997 0.557422 0.300403 0.169642
H139  H     H_    0.015807 0.443944 0.350382 0.169427
H140  H     H_    0.959619 0.425592 0.394642 0.119052
H141  H     H_    0.833618 0.991467 0.377659 0.120820
H142  H     H_    0.166381 0.991458 0.622342 0.120818
H143  H     H_    0.333622 0.491461 0.377653 0.120818
H144  H     H_    0.666384 0.491476 0.622340 0.120817

loop_
_geom_bond_atom_site_label_1
_geom_bond_atom_site_label_2
_ccdc_geom_bond_type
C99   C103  A    
C7    C168  A    
C188  H106  S    
C37   C69   S    
C99   H16   S    
C142  C146  A    
C77   C101  A    
C196  H130  S    
C174  H34   S    
C97   H14   S    
C197  H129  S    
C53   C69   A    
C38   C70   S    
C182  H92   S    
C50   H10   S    
C189  H118  S    
C62   H2    S    
C108  C164  S    
C116  H40   S    
Cr9   O33   S    
C55   C59   A    
C200  H135  S    
C193  H124  S    
C78   C102  A    
C29   C33   A    
C100  C104  A    
C23   H60   S    
C3    C74   S    
C9    C13   A    
C194  H122  S    
C41   H5    S    
C146  C150  A    
C84   C186  S    
C147  H43   S    
C140  H32   S    
C195  H133  S    
C12   C16   A    
C56   C72   A    
C169  C174  A    
C178  C179  S    
C132  H28   S    
C133  O45   A    
C134  O46   A    
C172  C175  A    
C141  C145  A    
C138  C154  A    
C6    C165  A    
C65   H77   S    
C21   C22   A    
C61   H1    S    
C90   O2    A    
C88   H20   S    
C109  H21   S    
C41   C49   A    
C64   H4    S    
C18   C170  A    
C25   C29   A    
C44   H8    S    
C27   C31   A    
C46   O30   A    
C28   C32   A    
Cr10  O18   S    
C199  H138  S    
C62   C66   A    
C167  C171  A    
Cr4   O48   S    
C98   C102  A    
Cr5   O49   S    
C60   C76   A    
C183  H104  S    
Cr7   O51   S    
C115  H39   S    
C78   C82   A    
C113  H37   S    
C186  C187  S    
C54   C70   A    
C16   C20   A    
C1    O21   A    
C140  C156  A    
C135  O47   A    
C20   C172  A    
C188  H108  S    
Cr11  O11   S    
C132  C152  A    
C197  H127  S    
C130  C138  A    
C182  H94   S    
Cr12  O12   S    
C137  C153  A    
Cr1   O21   S    
C84   C88   A    
C181  C182  S    
Cr9   O9    S    
C192  C193  S    
C119  C123  A    
C26   C90   S    
C5    C46   S    
C183  H105  S    
Cr11  O35   S    
C166  H81   S    
C105  C125  A    
C7    C48   S    
C60   H72   S    
C19   C20   A    
C26   C50   A    
C8    C47   S    
C107  C127  A    
C189  C190  S    
C79   C159  S    
C136  C153  S    
Cr1   O17   S    
C66   C70   A    
C92   O4    A    
C57   H69   S    
C55   H67   S    
C162  O42   A    
C191  H115  S    
C95   C99   A    
C158  O10   A    
C157  O9    A    
C180  C181  S    
C101  C192  S    
C61   C65   A    
C129  C137  A    
C141  H45   S    
C137  H29   S    
C175  H35   S    
C117  C149  S    
C48   O32   A    
C190  H116  S    
C55   C71   A    
C2    C75   S    
C91   O39   A    
Cr12  O16   S    
C122  C126  A    
C103  C198  S    
C159  O11   A    
C160  O12   A    
C6    C9    A    
C180  H97   S    
C85   H17   S    
C184  H102  S    
C36   H76   S    
C49   H9    S    
C121  C125  A    
C198  H139  S    
C187  H109  S    
C58   H70   S    
Cr1   O41   S    
C64   C68   A    
Cr5   O25   S    
C82   C180  S    
Cr3   O43   S    
C100  H15   S    
C65   C69   A    
C185  H100  S    
C164  O16   A    
C43   H7    S    
C118  C122  A    
Cr3   O19   S    
C181  H96   S    
C133  O49   A    
C85   C93   A    
C78   C158  S    
C87   C95   A    
C130  C150  A    
C23   C24   A    
C27   C91   S    
C2    O22   A    
C52   H12   S    
C45   O33   A    
Cr12  O40   S    
C110  C114  A    
C44   C52   A    
Cr9   O37   S    
C54   H66   S    
C79   C103  A    
C177  H91   S    
Cr10  O34   S    
C10   H53   S    
C11   C15   A    
C27   C51   A    
C123  H51   S    
C81   C177  S    
C7    C12   A    
C30   C34   A    
C13   C21   A    
Cr1   O45   S    
C10   C14   A    
C179  H86   S    
C25   C89   S    
C108  C128  A    
C116  C120  A    
C168  H83   S    
C29   H61   S    
C144  C156  A    
C147  C151  A    
Cr8   O52   S    
C129  C149  A    
C123  C127  A    
C139  C155  A    
C54   C58   A    
C17   C18   A    
C5    C166  A    
C142  C154  A    
C4    C73   S    
C42   C50   A    
C160  O8    A    
C107  C163  S    
C166  C170  A    
C115  C119  A    
C56   H68   S    
C178  H89   S    
C113  C117  A    
C93   C97   A    
C112  C116  A    
C58   C74   A    
C145  H41   S    
C39   C71   S    
Cr6   O50   S    
C1    C76   S    
C107  C111  A    
C196  H131  S    
C148  C152  A    
C197  H128  S    
Cr1   O1    S    
C32   C36   A    
C26   C30   A    
C21   H58   S    
C164  O44   A    
Cr3   O3    S    
C171  C176  A    
Cr6   O6    S    
C14   C22   A    
C3    O27   A    
C200  H134  S    
Cr8   O32   S    
C185  H101  S    
C141  C153  A    
C122  H50   S    
C63   C75   A    
C136  O52   A    
C96   C100  A    
C105  C161  S    
C129  H25   S    
C194  H121  S    
C131  C139  A    
Cr7   O31   S    
C139  H31   S    
C40   C44   A    
C195  H132  S    
C24   H59   S    
Cr9   O13   S    
C81   C85   A    
Cr10  O10   S    
C83   C87   A    
C88   C96   A    
C6    C45   S    
Cr2   O22   S    
C133  C156  S    
Cr6   O30   S    
C98   H13   S    
Cr7   O27   S    
C80   C84   A    
C173  H33   S    
C86   H18   S    
Cr2   O42   S    
Cr2   O18   S    
C15   C19   A    
C186  H112  S    
C135  C154  S    
C125  H141  S    
C80   C104  A    
C157  O5    A    
C124  H52   S    
C161  O13   A    
C80   C160  S    
C94   C98   A    
C33   H73   S    
C35   H75   S    
C118  C150  S    
C14   C18   A    
C190  C191  S    
C105  C109  A    
C177  H90   S    
Cr12  O20   S    
C148  H44   S    
C176  H36   S    
C167  H84   S    
Cr5   O17   S    
C124  C128  A    
C192  H126  S    
Cr7   O19   S    
C188  H107  S    
C165  C169  A    
C59   H71   S    
C110  H22   S    
C53   H65   S    
Cr6   O26   S    
Cr5   O5    S    
C182  H93   S    
C189  H119  S    
C144  H48   S    
C199  C200  S    
C179  H87   S    
C200  H136  S    
C185  H99   S    
C53   C57   A    
C193  H123  S    
C102  C189  S    
C92   O40   A    
C61   C73   A    
C82   C86   A    
C131  H27   S    
C33   C37   A    
C56   C60   A    
C45   O29   A    
C35   C39   A    
C4    O24   A    
C8    C167  A    
C89   O37   A    
C114  H38   S    
C77   C81   A    
Cr10  O38   S    
Cr4   O4    S    
Cr4   O24   S    
Cr5   O29   S    
C31   C35   A    
C163  O43   A    
Cr2   O46   S    
C190  H117  S    
C195  C196  S    
Cr11  O15   S    
C127  H143  S    
C128  H144  S    
C199  H137  S    
C198  C199  S    
C184  H103  S    
C1    O25   A    
C132  C140  A    
C106  C126  A    
C187  H110  S    
C143  C155  A    
C165  H82   S    
C196  C197  S    
C179  H85   S    
C79   C83   A    
C43   C51   A    
C63   H3    S    
C67   C71   A    
C106  C162  S    
C177  C178  S    
C25   C49   A    
C68   H80   S    
C13   C17   A    
C108  C112  A    
C168  C172  A    
C62   C74   A    
C145  C149  A    
Cr2   O2    S    
C170  C173  A    
Cr8   O8    S    
C93   C94   S    
C2    O26   A    
C47   O31   A    
C95   C96   S    
C3    O23   A    
C144  C148  A    
C135  O51   A    
Cr8   O28   S    
C173  C174  A    
C136  O48   A    
C143  C147  A    
C89   O1    A    
C112  H24   S    
C111  H23   S    
C19   C171  A    
C38   C42   A    
C91   O3    A    
C104  C195  S    
Cr12  O36   S    
C17   C169  A    
C57   C73   A    
C143  H47   S    
C42   H6    S    
C117  C121  A    
Cr9   O17   S    
C86   C94   A    
C106  C110  A    
Cr11  O19   S    
C175  C176  A    
Cr3   O23   S    
Cr10  O14   S    
C66   H78   S    
C68   C72   A    
C15   C23   A    
Cr8   O20   S    
C40   C72   S    
C37   C41   A    
C11   H56   S    
C126  H142  S    
C9    H54   S    
C180  H98   S    
C158  O6    A    
C162  O14   A    
C119  C151  S    
C63   C67   A    
C198  H140  S    
C120  C152  S    
C34   H74   S    
C31   H63   S    
Cr4   O44   S    
C36   C40   A    
C191  H114  S    
C39   C43   A    
C30   H62   S    
Cr4   O20   S    
C46   O34   A    
C181  H95   S    
Cr6   O18   S    
C191  H113  S    
C67   H79   S    
Cr7   O7    S    
C12   H55   S    
C64   C76   A    
C28   C92   S    
C87   H19   S    
C194  H120  S    
C114  C118  A    
C130  H26   S    
C51   H11   S    
C163  O15   A    
C161  O41   A    
C59   C75   A    
C193  C194  S    
C146  H42   S    
C134  C155  S    
C34   C38   A    
C47   O35   A    
C4    O28   A    
C48   O36   A    
C22   H57   S    
C90   O38   A    
C109  C113  A    
C186  H111  S    
C32   H64   S    
C159  O7    A    
Cr11  O39   S    
C5    C10   A    
C28   C52   A    
C184  C185  S    
C8    C11   A    
C121  H49   S    
C187  C188  S    
C131  C151  A    
C83   C183  S    
Cr3   O47   S    
C142  H46   S    
C134  O50   A    
C138  H30   S    
C16   C24   A    
C178  H88   S    
C111  C115  A    
C183  C184  S    
C97   C101  A    
C120  C124  A    
C77   C157  S    
C192  H125  S    
