data_mof_unit_214.cif
_audit_creation_date              2012-10-26T17:16:12-0400
_audit_creation_method            fapswitch 2.2
_symmetry_space_group_name_H-M    P1
_symmetry_Int_Tables_number       1
_space_group_crystal_system       triclinic
_cell_length_a                    23.620385
_cell_length_b                    30.699615
_cell_length_c                    19.529773
_cell_angle_alpha                 90.010183
_cell_angle_beta                  127.407503
_cell_angle_gamma                 90.179001
_cell_volume                      11249.0859548

loop_
_atom_site_label
_atom_site_type_symbol
_atom_type_description
_atom_site_fract_x
_atom_site_fract_y
_atom_site_fract_z
_atom_type_partial_charge
C1    C     C_R   0.692136 0.809624 0.881211 0.611652
C2    C     C_R   0.292989 0.124461 0.184829 -0.077137
C3    C     C_R   0.693138 0.161306 0.629236 0.252429
C4    C     C_R   0.272601 0.459677 0.843268 0.227412
C5    C     C_R   0.714349 0.571528 0.219301 0.258300
C6    C     C_R   0.720526 0.397504 0.259248 0.238808
C7    C     C_R   0.183682 0.663905 0.619642 0.249829
C8    C     C_R   0.697386 0.956134 0.777921 -0.176371
C9    C     C_R   0.284596 0.057936 0.246078 -0.144645
C10   C     C_R   0.283962 0.915060 0.286005 -0.133380
C11   C     C_R   0.641988 0.132903 0.619041 -0.139146
C12   C     C_R   0.200085 0.455051 0.776476 -0.172330
C13   C     C_R   0.306278 0.856496 0.221501 -0.084782
C14   C     C_R   0.783454 0.561004 0.251062 -0.143292
C15   C     C_R   0.782449 0.417494 0.280846 -0.138604
C16   C     C_R   0.135583 0.634371 0.613510 -0.146874
C17   C     C_R   0.662224 0.916017 0.763581 -0.136447
C18   C     C_R   0.327321 0.089901 0.245132 -0.138362
C19   C     C_R   0.328797 0.895957 0.268865 -0.130530
C20   C     C_R   0.637209 0.126252 0.687154 -0.128235
C21   C     C_R   0.163864 0.415443 0.762558 -0.137841
C22   C     C_R   0.826798 0.591613 0.248090 -0.135975
C23   C     C_R   0.828322 0.396351 0.267465 -0.128227
C24   C     C_R   0.679321 0.152468 0.761203 -0.090826
C25   C     C_R   0.134468 0.627250 0.684206 -0.128159
C26   C     C_3   0.497081 0.811970 0.735393 -0.010896
C27   C     C_3   0.511992 0.792118 0.815690 -0.367102
C28   C     C_3   0.469033 0.186501 0.191674 0.006038
C29   C     C_3   0.520756 0.223192 0.212475 -0.360133
C30   C     C_3   0.419828 0.885204 0.101231 0.011872
C31   C     C_3   0.418802 0.863460 0.030674 -0.380993
C32   C     C_3   0.624160 0.099413 0.930370 0.015855
C33   C     C_3   0.635455 0.117584 0.010317 -0.372681
C34   C     C_3   0.001104 0.322933 0.753814 -0.014971
C35   C     C_R   0.200487 0.381042 0.822102 -0.087462
C36   C     C_3   0.023401 0.307350 0.840169 -0.375406
C37   C     C_3   0.954822 0.665856 0.158129 -0.004930
C38   C     C_3   0.020845 0.685131 0.172652 -0.372905
C39   C     C_3   0.988046 0.316309 0.230206 0.006780
C40   C     C_3   0.043197 0.314129 0.213795 -0.361903
C41   C     C_3   0.132386 0.597714 0.935124 0.017938
C42   C     C_3   0.144340 0.615215 0.015900 -0.370207
C43   C     C_3   0.845915 0.841014 0.878807 0.010996
C44   C     C_3   0.797899 0.809386 0.803738 -0.276089
C45   C     C_3   0.833357 0.794544 0.763519 -0.473342
C46   C     C_R   0.792976 0.626202 0.187820 -0.080017
C47   C     C_3   0.122795 0.130915 0.988490 0.043696
C48   C     C_3   0.151412 0.108761 0.944741 -0.264651
C49   C     C_3   0.094763 0.079697 0.870254 -0.504672
C50   C     C_3   0.248099 0.761386 0.251221 0.050369
C51   C     C_3   0.302278 0.725888 0.274350 -0.260373
C52   C     C_3   0.312985 0.695310 0.342938 -0.504289
C53   C     C_3   0.849489 0.151957 0.896007 0.016248
C54   C     C_3   0.831299 0.112654 0.928381 -0.290045
C55   C     C_3   0.896568 0.084476 0.990344 -0.444293
C56   C     C_3   0.342180 0.337158 0.869315 0.008494
C57   C     C_R   0.803667 0.357423 0.218218 -0.086938
C58   C     C_3   0.291811 0.304975 0.796533 -0.276228
C59   C     C_3   0.323843 0.288358 0.753231 -0.475708
C60   C     C_3   0.623073 0.631995 0.993073 0.042676
C61   C     C_3   0.651571 0.608562 0.950321 -0.264224
C62   C     C_3   0.595098 0.578505 0.877928 -0.504897
C63   C     C_3   0.741720 0.264466 0.241182 0.037524
C64   C     C_3   0.820510 0.251584 0.303364 -0.280643
C65   C     C_3   0.834873 0.223855 0.377261 -0.496410
C66   C     C_3   0.346772 0.655471 0.884634 0.007698
C67   C     C_3   0.331818 0.616335 0.920754 -0.288039
C68   C     C_R   0.177133 0.653951 0.757462 -0.088585
C69   C     C_3   0.398392 0.588885 0.981350 -0.452504
C70   C     C_3   0.891615 0.936670 0.047771 -0.004573
C71   C     C_3   0.966210 0.954766 0.114525 -0.361725
C72   C     C_3   0.120340 0.156107 0.174001 -0.014155
C73   C     C_3   0.051698 0.164826 0.162375 -0.376135
C74   C     C_3   0.085924 0.845975 0.138784 0.011575
C75   C     C_3   0.023876 0.835970 0.140823 -0.359323
C76   C     C_3   0.789400 0.248490 0.728876 0.007605
C77   C     C_3   0.849551 0.274118 0.740434 -0.379796
C78   C     C_3   0.396577 0.450555 0.034698 -0.006907
C79   C     C_R   0.660755 0.843504 0.813964 -0.027549
C80   C     C_3   0.471189 0.470160 0.087648 -0.350917
C81   C     C_3   0.619388 0.661372 0.175841 -0.013956
C82   C     C_3   0.550530 0.670055 0.163750 -0.369819
C83   C     C_3   0.578950 0.354031 0.119010 0.012615
C84   C     C_3   0.513437 0.348004 0.115694 -0.356982
C85   C     C_3   0.289582 0.751013 0.730504 0.021636
C86   C     C_3   0.305525 0.781150 0.682324 -0.393313
C87   C     C_3   0.812430 0.998367 0.784994 0.006521
C88   C     C_3   0.863710 0.033934 0.799862 -0.372609
C89   C     C_3   0.184017 0.054450 0.300422 0.001899
C90   C     C_R   0.336358 0.155716 0.181809 -0.020169
C91   C     C_3   0.168308 0.017392 0.337975 -0.366566
C92   C     C_3   0.208006 0.893381 0.372179 0.000285
C93   C     C_3   0.153583 0.903724 0.387582 -0.379271
C94   C     C_3   0.649915 0.201355 0.508504 0.003479
C95   C     C_3   0.682608 0.227394 0.474039 -0.372436
C96   C     C_3   0.317411 0.495588 0.784060 0.007489
C97   C     C_3   0.366628 0.532231 0.797421 -0.376344
C98   C     C_3   0.688948 0.560473 0.312626 0.005676
C99   C     C_3   0.663297 0.526522 0.344633 -0.369137
C100  C     C_3   0.702206 0.401576 0.360555 0.007051
C101  C     C_R   0.339570 0.843457 0.184039 -0.002934
C102  C     C_3   0.641448 0.405770 0.367089 -0.373889
C103  C     C_3   0.131603 0.702535 0.496413 0.010833
C104  C     C_3   0.136154 0.714520 0.424317 -0.341021
C105  C     C_3   0.438899 0.864290 0.554292 0.018456
C106  C     C_3   0.388677 0.826859 0.499564 -0.375680
C107  C     C_3   0.548606 0.094840 0.324952 0.008981
C108  C     C_3   0.619269 0.115202 0.355717 -0.379508
C109  C     C_3   0.465283 0.966579 0.234789 -0.006878
C110  C     C_3   0.528177 0.986071 0.242291 -0.369986
C111  C     C_3   0.571995 0.023129 0.779472 0.001259
C112  C     C_R   0.305336 0.190484 0.117924 0.618891
C113  C     C_R   0.661536 0.155588 0.818009 -0.015561
C114  C     C_3   0.525563 0.992151 0.786842 -0.362646
C115  C     C_3   0.935332 0.368363 0.564462 0.023091
C116  C     C_3   0.882672 0.330676 0.519686 -0.385127
C117  C     C_3   0.048365 0.590932 0.325540 0.015597
C118  C     C_3   0.124387 0.579223 0.401504 -0.352742
C119  C     C_3   0.980600 0.449447 0.235112 0.020855
C120  C     C_3   0.050476 0.469477 0.262393 -0.367951
C121  C     C_3   0.077481 0.521804 0.781823 0.000710
C122  C     C_3   0.033377 0.490050 0.791801 -0.363133
C123  C     C_R   0.161031 0.343608 0.814163 -0.029335
C124  C     C_R   0.836474 0.655357 0.180892 -0.020722
C125  C     C_R   0.839363 0.342295 0.185183 -0.017123
C126  C     C_R   0.162550 0.655721 0.817610 -0.017912
C127  C     C_R   0.590100 0.837468 0.738625 0.263467
C128  C     C_R   0.411417 0.153213 0.239241 0.232176
C129  C     C_R   0.395496 0.868044 0.196329 0.248238
C130  C     C_R   0.613879 0.125872 0.812926 0.242668
C131  C     C_R   0.088944 0.339107 0.741584 0.266738
C132  C     C_R   0.308351 0.809401 0.118406 0.656327
C133  C     C_R   0.910985 0.649792 0.232175 0.235107
C134  C     C_R   0.902804 0.361816 0.209456 0.224765
C135  C     C_R   0.117140 0.624957 0.815035 0.242738
C136  C     C_R   0.559481 0.867552 0.671195 0.246351
C137  C     C_R   0.444487 0.118843 0.297817 0.258338
C138  C     C_R   0.424311 0.903540 0.254086 0.252048
C139  C     C_R   0.582445 0.093335 0.749153 0.252005
C140  C     C_R   0.058063 0.368878 0.673739 0.248538
C141  C     C_R   0.944116 0.617228 0.294749 0.249082
C142  C     C_R   0.931614 0.397006 0.266344 0.248353
C143  C     C_R   0.691013 0.190376 0.882038 0.652580
C144  C     C_R   0.085150 0.592496 0.751144 0.251268
C145  C     C_R   0.593253 0.907973 0.686344 -0.023230
C146  C     C_R   0.402883 0.088330 0.303997 -0.037880
C147  C     C_R   0.395118 0.914965 0.296951 -0.042257
C148  C     C_R   0.592038 0.094432 0.684018 -0.027117
C149  C     C_R   0.093672 0.408252 0.686805 -0.026161
C150  C     C_R   0.902466 0.588664 0.304528 -0.037673
C151  C     C_R   0.897575 0.412712 0.300813 -0.040092
C152  C     C_R   0.092057 0.594417 0.683907 -0.025541
C153  C     C_R   0.058426 0.560735 0.616882 0.557039
C154  C     C_R   0.192381 0.309638 0.881255 0.614649
C155  C     C_R   0.937073 0.443102 0.375325 0.572516
C156  C     C_R   0.938890 0.558040 0.377669 0.568065
C157  C     C_R   0.059044 0.440197 0.618025 0.580761
C158  C     C_R   0.558363 0.060844 0.616724 0.556967
C159  C     C_R   0.436589 0.943599 0.374530 0.564612
C160  C     C_R   0.438898 0.057863 0.377391 0.560803
C161  C     C_R   0.558816 0.939996 0.617641 0.579041
C162  C     C_R   0.642547 0.749358 0.001178 0.573242
C163  C     C_R   0.358115 0.249923 0.000126 0.556006
C164  C     C_R   0.358630 0.750622 0.001270 0.610839
C165  C     C_R   0.805770 0.690421 0.117783 0.628505
C166  C     C_R   0.641517 0.249515 0.999053 0.607815
C167  C     C_R   0.143051 0.248874 0.002127 0.573275
C168  C     C_R   0.858051 0.750025 0.999997 0.558764
C169  C     C_R   0.858713 0.250689 0.001427 0.608623
C170  C     C_R   0.141647 0.749650 0.999313 0.605227
C171  C     C_1   0.581846 0.749373 0.001664 -0.029970
C172  C     C_1   0.419222 0.248940 0.000551 -0.046742
C173  C     C_1   0.419877 0.751093 0.001958 -0.026083
C174  C     C_1   0.580418 0.248930 0.998651 0.000838
C175  C     C_1   0.082778 0.248422 0.003515 -0.032213
C176  C     C_R   0.807978 0.309201 0.118409 0.647882
C177  C     C_1   0.919004 0.749281 0.000110 -0.045811
C178  C     C_1   0.919902 0.250850 0.001984 -0.016357
C179  C     C_1   0.080467 0.749073 0.998736 -0.000804
C180  C     C_1   0.530799 0.750033 0.001792 -0.062504
C181  C     C_1   0.470012 0.248303 0.999862 -0.078583
C182  C     C_1   0.470991 0.750911 0.001925 -0.077704
C183  C     C_1   0.529479 0.248400 0.999009 -0.056843
C184  C     C_1   0.031601 0.249018 0.003398 -0.067623
C185  C     C_1   0.969764 0.748705 0.999359 -0.081559
C186  C     C_1   0.971302 0.250199 0.002540 -0.073183
C187  C     C_R   0.192066 0.690403 0.881965 0.652265
C188  C     C_1   0.029355 0.748637 0.998751 -0.060715
C189  C     C_R   0.774170 0.886536 0.887556 0.253469
C190  C     C_R   0.216842 0.127388 0.134428 0.229311
C191  C     C_R   0.250222 0.832154 0.211954 0.239095
C192  C     C_R   0.739630 0.173565 0.777533 0.236213
C193  C     C_R   0.275809 0.384524 0.883844 0.269204
C194  C     C_R   0.717128 0.630372 0.139155 0.229021
C195  C     C_R   0.743863 0.335321 0.203375 0.242188
C196  C     C_R   0.234971 0.676581 0.769653 0.238993
C197  C     C_R   0.807151 0.927689 0.903729 0.288213
C198  C     C_R   0.699175 0.881930 0.823787 -0.083740
C199  C     C_R   0.182144 0.104031 0.161957 0.277429
C200  C     C_R   0.206953 0.852013 0.230078 0.267478
C201  C     C_R   0.743736 0.180517 0.709511 0.295423
C202  C     C_R   0.310050 0.425108 0.899959 0.287903
C203  C     C_R   0.682557 0.608345 0.168260 0.276965
C204  C     C_R   0.699781 0.357121 0.217919 0.274205
C205  C     C_R   0.235632 0.683718 0.698695 0.298540
C206  C     C_R   0.769516 0.961594 0.845736 0.241441
C207  C     C_R   0.214506 0.066973 0.212127 0.260961
C208  C     C_R   0.225615 0.892796 0.270061 0.237174
Cu1   Cu    Cu3+1 0.719090 0.719080 0.938180 0.928529
Cu2   Cu    Cu3+1 0.055800 0.500000 0.500010 0.906462
Cu3   Cu    Cu3+1 0.444200 0.000000 0.499990 0.889453
Cu4   Cu    Cu3+1 0.555800 0.000000 0.500010 0.928167
Cu5   Cu    Cu3+1 0.280910 0.280920 0.061820 0.959262
Cu6   Cu    Cu3+1 0.280910 0.719080 0.061820 0.906180
Cu7   Cu    Cu3+1 0.719090 0.280920 0.938180 0.960317
Cu8   Cu    Cu3+1 0.219090 0.219080 0.938180 0.928712
Cu9   Cu    Cu3+1 0.780910 0.780920 0.061820 0.958449
Cu10  Cu    Cu3+1 0.780910 0.219080 0.061820 0.891803
Cu11  Cu    Cu3+1 0.219090 0.780920 0.938180 0.937221
Cu12  Cu    Cu3+1 0.944200 0.500000 0.499990 0.887449
H1    H     H_    0.670663 0.983404 0.734975 0.143014
H2    H     H_    0.489802 0.847674 0.738251 0.084113
H3    H     H_    0.312728 0.627819 0.957258 0.193624
H4    H     H_    0.289673 0.595515 0.866602 0.168509
H5    H     H_    0.426478 0.582502 0.953095 0.159709
H6    H     H_    0.383109 0.557366 0.993867 0.174166
H7    H     H_    0.435393 0.605962 0.043802 0.155367
H8    H     H_    0.887494 0.904119 0.069527 0.153943
H9    H     H_    0.853194 0.959422 0.044410 0.112096
H10   H     H_    0.977343 0.956463 0.178489 0.084188
H11   H     H_    0.006390 0.933504 0.119518 0.172713
H12   H     H_    0.970695 0.987998 0.095714 0.174053
H13   H     H_    0.561806 0.806545 0.872914 0.144535
H14   H     H_    0.128554 0.183016 0.142764 0.175871
H15   H     H_    0.164920 0.156381 0.244592 0.103457
H16   H     H_    0.042003 0.138684 0.193459 0.142073
H17   H     H_    0.055507 0.196607 0.192140 0.101452
H18   H     H_    0.006458 0.166025 0.092809 0.157507
H19   H     H_    0.076659 0.829775 0.081928 0.144337
H20   H     H_    0.087003 0.881873 0.130928 0.151560
H21   H     H_    0.029878 0.854540 0.193634 0.147459
H22   H     H_    0.972980 0.845431 0.078789 0.139428
H23   H     H_    0.022397 0.800700 0.151909 0.165337
H24   H     H_    0.467911 0.799636 0.819275 0.089379
H25   H     H_    0.790392 0.255172 0.785619 0.177809
H26   H     H_    0.738130 0.260239 0.669410 0.107162
H27   H     H_    0.849282 0.268979 0.683958 0.149751
H28   H     H_    0.843271 0.309383 0.746815 0.085937
H29   H     H_    0.900915 0.262706 0.799609 0.169429
H30   H     H_    0.393275 0.426938 0.075356 0.129203
H31   H     H_    0.358690 0.477773 0.016933 0.131011
H32   H     H_    0.482042 0.487789 0.144192 0.094151
H33   H     H_    0.511528 0.444223 0.110980 0.169998
H34   H     H_    0.475792 0.493426 0.047689 0.181640
H35   H     H_    0.517045 0.756237 0.814581 0.183106
H36   H     H_    0.626647 0.687420 0.142284 0.176815
H37   H     H_    0.664093 0.663115 0.246288 0.105179
H38   H     H_    0.541609 0.644458 0.196485 0.147255
H39   H     H_    0.553513 0.702303 0.191573 0.120004
H40   H     H_    0.505134 0.670152 0.094106 0.157305
H41   H     H_    0.571249 0.335893 0.064678 0.145646
H42   H     H_    0.583704 0.389422 0.110255 0.146420
H43   H     H_    0.518389 0.368069 0.166337 0.149129
H44   H     H_    0.465176 0.358295 0.052008 0.169234
H45   H     H_    0.507792 0.313379 0.126556 0.162587
H46   H     H_    0.420397 0.190075 0.124432 0.130612
H47   H     H_    0.332395 0.754875 0.800822 0.177250
H48   H     H_    0.237986 0.761632 0.715682 0.113108
H49   H     H_    0.260748 0.780224 0.612250 0.146721
H50   H     H_    0.312694 0.815068 0.706197 0.084023
H51   H     H_    0.354848 0.770539 0.692223 0.160439
H52   H     H_    0.760119 0.004479 0.721540 0.138141
H53   H     H_    0.834024 0.966615 0.782473 0.133840
H54   H     H_    0.916962 0.028632 0.862241 0.161305
H55   H     H_    0.869273 0.033204 0.747354 0.099798
H56   H     H_    0.842962 0.066283 0.799809 0.149402
H57   H     H_    0.494393 0.155441 0.195827 0.110442
H58   H     H_    0.144530 0.080681 0.280535 0.157542
H59   H     H_    0.238563 0.067012 0.352594 0.118767
H60   H     H_    0.209969 0.992069 0.363130 0.181591
H61   H     H_    0.168725 0.029628 0.391790 0.075745
H62   H     H_    0.115196 0.002963 0.287639 0.177675
H63   H     H_    0.260447 0.907508 0.425775 0.109185
H64   H     H_    0.212624 0.857206 0.373435 0.153611
H65   H     H_    0.100231 0.891323 0.333247 0.157730
H66   H     H_    0.169520 0.887875 0.448024 0.087905
H67   H     H_    0.150396 0.939301 0.393953 0.137108
H68   H     H_    0.568495 0.221334 0.280841 0.145687
H69   H     H_    0.637356 0.224758 0.541372 0.100990
H70   H     H_    0.599054 0.186581 0.453436 0.205553
H71   H     H_    0.693955 0.205773 0.438175 0.146754
H72   H     H_    0.645249 0.253329 0.430167 0.095110
H73   H     H_    0.733178 0.242843 0.528310 0.162109
H74   H     H_    0.265266 0.499967 0.719479 0.135097
H75   H     H_    0.341635 0.464211 0.785049 0.136667
H76   H     H_    0.419833 0.528376 0.860592 0.155076
H77   H     H_    0.373090 0.531234 0.745673 0.096934
H78   H     H_    0.343580 0.564173 0.794883 0.152253
H79   H     H_    0.538280 0.220528 0.171285 0.102497
H80   H     H_    0.658180 0.590845 0.298673 0.150321
H81   H     H_    0.746539 0.566843 0.365530 0.122225
H82   H     H_    0.696722 0.496985 0.364484 0.175264
H83   H     H_    0.668117 0.539382 0.401124 0.081887
H84   H     H_    0.606694 0.517990 0.292853 0.165520
H85   H     H_    0.748497 0.421130 0.412788 0.110192
H86   H     H_    0.717822 0.366500 0.371244 0.134094
H87   H     H_    0.596868 0.383876 0.319474 0.158393
H88   H     H_    0.660290 0.396328 0.432725 0.086036
H89   H     H_    0.621673 0.439720 0.354434 0.144576
H90   H     H_    0.494693 0.255143 0.201592 0.170199
H91   H     H_    0.140244 0.732835 0.533244 0.112549
H92   H     H_    0.077170 0.689550 0.466894 0.172476
H93   H     H_    0.127141 0.685208 0.385622 0.177456
H94   H     H_    0.094871 0.739081 0.381440 0.121815
H95   H     H_    0.189562 0.728357 0.451809 0.141805
H96   H     H_    0.421868 0.892533 0.510719 0.186573
H97   H     H_    0.432271 0.873033 0.604262 0.087430
H98   H     H_    0.407862 0.795946 0.536396 0.175481
H99   H     H_    0.334563 0.833725 0.479747 0.058757
H100  H     H_    0.385661 0.822860 0.440865 0.156115
H101  H     H_    0.467572 0.906375 0.136757 0.177950
H102  H     H_    0.513673 0.091707 0.253464 0.080380
H103  H     H_    0.560678 0.061389 0.350948 0.162148
H104  H     H_    0.611402 0.149295 0.333290 0.152632
H105  H     H_    0.657069 0.114670 0.427197 0.196688
H106  H     H_    0.642624 0.096449 0.329801 0.081356
H107  H     H_    0.451716 0.988833 0.267633 0.139275
H108  H     H_    0.418614 0.965480 0.165383 0.080461
H109  H     H_    0.544183 0.964590 0.211099 0.143912
H110  H     H_    0.513229 0.018226 0.209931 0.068783
H111  H     H_    0.574349 0.990059 0.311243 0.154431
H112  H     H_    0.305583 0.026944 0.277776 0.158009
H113  H     H_    0.370435 0.905137 0.069594 0.102401
H114  H     H_    0.624495 0.026644 0.844057 0.086968
H115  H     H_    0.580924 0.007756 0.735718 0.146571
H116  H     H_    0.473716 0.987046 0.722430 0.168721
H117  H     H_    0.552688 0.960221 0.811945 0.087119
H118  H     H_    0.515734 0.005714 0.831440 0.137263
H119  H     H_    0.915496 0.394459 0.515741 0.183440
H120  H     H_    0.934755 0.381217 0.617253 0.091655
H121  H     H_    0.831345 0.339605 0.506378 0.062206
H122  H     H_    0.872900 0.323176 0.457658 0.148873
H123  H     H_    0.903890 0.301098 0.560568 0.181788
H124  H     H_    0.367513 0.846317 0.985436 0.176113
H125  H     H_    0.051696 0.608680 0.279036 0.128773
H126  H     H_    0.017713 0.560202 0.294591 0.115838
H127  H     H_    0.125266 0.561635 0.451744 0.182746
H128  H     H_    0.148216 0.558045 0.379082 0.063819
H129  H     H_    0.157334 0.609152 0.430409 0.184169
H130  H     H_    0.949276 0.475261 0.238513 0.107120
H131  H     H_    0.950621 0.437903 0.167248 0.153688
H132  H     H_    0.082390 0.444763 0.257986 0.155068
H133  H     H_    0.039619 0.497245 0.219560 0.070546
H134  H     H_    0.081471 0.481450 0.329867 0.158569
H135  H     H_    0.424078 0.888531 0.993850 0.079808
H136  H     H_    0.130949 0.525465 0.845211 0.086887
H137  H     H_    0.084570 0.507033 0.736025 0.145921
H138  H     H_    0.980622 0.484779 0.728525 0.167929
H139  H     H_    0.061334 0.458290 0.815708 0.086763
H140  H     H_    0.025354 0.503025 0.838384 0.139315
H141  H     H_    0.463788 0.840270 0.059153 0.171228
H142  H     H_    0.676696 0.087550 0.949744 0.099335
H143  H     H_    0.586583 0.071650 0.907533 0.166843
H144  H     H_    0.585752 0.132939 0.992876 0.165606
H145  H     H_    0.650726 0.090876 0.056895 0.072469
H146  H     H_    0.679013 0.142014 0.041794 0.183137
H147  H     H_    0.946386 0.310899 0.703480 0.139572
H148  H     H_    0.290598 0.948191 0.308016 0.177306
H149  H     H_    0.998527 0.359248 0.754356 0.086473
H150  H     H_    0.078251 0.318841 0.891744 0.154053
H151  H     H_    0.987206 0.320786 0.853187 0.091411
H152  H     H_    0.020719 0.271277 0.839001 0.173355
H153  H     H_    0.907159 0.678307 0.096379 0.151924
H154  H     H_    0.955396 0.629845 0.151217 0.085738
H155  H     H_    0.069998 0.672583 0.233100 0.130808
H156  H     H_    0.021710 0.676154 0.118235 0.105650
H157  H     H_    0.020567 0.721133 0.177428 0.164778
H158  H     H_    0.962326 0.283797 0.216571 0.138493
H159  H     H_    0.605368 0.117426 0.556898 0.189529
H160  H     H_    0.016935 0.324110 0.299933 0.149670
H161  H     H_    0.072259 0.345643 0.231595 0.166784
H162  H     H_    0.081944 0.287765 0.253107 0.087868
H163  H     H_    0.016795 0.307458 0.144694 0.163166
H164  H     H_    0.185068 0.587257 0.953010 0.098687
H165  H     H_    0.096589 0.569091 0.913544 0.165334
H166  H     H_    0.094043 0.628813 0.999820 0.164789
H167  H     H_    0.162649 0.588506 0.063336 0.070548
H168  H     H_    0.185892 0.640928 0.045783 0.182205
H169  H     H_    0.898974 0.826211 0.925153 0.152137
H170  H     H_    0.173775 0.482651 0.734355 0.146988
H171  H     H_    0.856170 0.870550 0.854450 0.136845
H172  H     H_    0.785755 0.780421 0.826742 0.198015
H173  H     H_    0.746863 0.825647 0.753354 0.166264
H174  H     H_    0.844898 0.823005 0.738619 0.148550
H175  H     H_    0.797112 0.771993 0.709080 0.161936
H176  H     H_    0.883821 0.777179 0.811878 0.162766
H177  H     H_    0.080595 0.154200 0.942236 0.159166
H178  H     H_    0.094911 0.106408 0.000224 0.160009
H179  H     H_    0.167613 0.133872 0.918805 0.195054
H180  H     H_    0.198570 0.088575 0.992296 0.158772
H181  H     H_    0.802857 0.529658 0.281569 0.161537
H182  H     H_    0.078788 0.053257 0.894267 0.151899
H183  H     H_    0.116569 0.064719 0.838993 0.146421
H184  H     H_    0.047096 0.099182 0.821471 0.151692
H185  H     H_    0.196018 0.745830 0.225163 0.167890
H186  H     H_    0.266982 0.778608 0.312215 0.117848
H187  H     H_    0.283628 0.706535 0.216057 0.190436
H188  H     H_    0.354180 0.741301 0.299224 0.179316
H189  H     H_    0.333565 0.713671 0.402982 0.155121
H190  H     H_    0.352232 0.669802 0.357968 0.148651
H191  H     H_    0.261833 0.679232 0.319242 0.141200
H192  H     H_    0.791183 0.450395 0.304503 0.175073
H193  H     H_    0.900076 0.166423 0.951446 0.156392
H194  H     H_    0.860110 0.141168 0.850304 0.141440
H195  H     H_    0.810227 0.123983 0.962771 0.193515
H196  H     H_    0.789650 0.092445 0.872557 0.173649
H197  H     H_    0.925761 0.077347 0.963763 0.169782
H198  H     H_    0.879618 0.053304 0.001814 0.184049
H199  H     H_    0.933108 0.101436 0.053075 0.146720
H200  H     H_    0.395449 0.322267 0.913515 0.151375
H201  H     H_    0.350765 0.366106 0.841952 0.131650
H202  H     H_    0.280875 0.276830 0.822539 0.200386
H203  H     H_    0.098216 0.618289 0.552213 0.185250
H204  H     H_    0.240447 0.321266 0.747283 0.162698
H205  H     H_    0.334370 0.315951 0.725544 0.147454
H206  H     H_    0.285909 0.265487 0.700410 0.157487
H207  H     H_    0.374447 0.270841 0.800562 0.162385
H208  H     H_    0.580645 0.654835 0.945597 0.155890
H209  H     H_    0.595489 0.608094 0.006355 0.159404
H210  H     H_    0.667160 0.632901 0.922484 0.194649
H211  H     H_    0.699091 0.588911 0.998941 0.160333
H212  H     H_    0.579745 0.552783 0.903909 0.150964
H213  H     H_    0.616778 0.562612 0.847267 0.148280
H214  H     H_    0.445878 0.798540 0.678727 0.141761
H215  H     H_    0.547056 0.597429 0.828148 0.148776
H216  H     H_    0.709526 0.234411 0.209864 0.152268
H217  H     H_    0.724250 0.278204 0.278313 0.151042
H218  H     H_    0.835388 0.232536 0.268206 0.188117
H219  H     H_    0.854553 0.281235 0.330666 0.161478
H220  H     H_    0.821458 0.242230 0.414657 0.146297
H221  H     H_    0.892184 0.215057 0.421175 0.161784
H222  H     H_    0.802637 0.193443 0.351803 0.141601
H223  H     H_    0.398324 0.670183 0.937708 0.156089
H224  H     H_    0.354265 0.644307 0.836295 0.139277
O1    O     O_R   0.678810 0.768970 0.857610 -0.470016
O2    O     O_R   0.269010 0.178840 0.038010 -0.512030
O3    O     O_R   0.269010 0.821160 0.038010 -0.518200
O4    O     O_R   0.730990 0.178840 0.961990 -0.518196
O5    O     O_R   0.230990 0.321160 0.961990 -0.493805
O6    O     O_R   0.769010 0.678840 0.038010 -0.514748
O7    O     O_R   0.769010 0.321160 0.038010 -0.498373
O8    O     O_R   0.230990 0.678840 0.961990 -0.521601
O9    O     O_R   0.642490 0.723880 0.947790 -0.500887
O10   O     O_R   0.357510 0.276120 0.052210 -0.487079
O11   O     O_R   0.357510 0.723880 0.052210 -0.508555
O12   O     O_R   0.321190 0.231030 0.142390 -0.478816
O13   O     O_R   0.642490 0.276120 0.947790 -0.509877
O14   O     O_R   0.142490 0.223880 0.947790 -0.494696
O15   O     O_R   0.857510 0.776120 0.052210 -0.479971
O16   O     O_R   0.857510 0.223880 0.052210 -0.520593
O17   O     O_R   0.142490 0.776120 0.947790 -0.509788
O18   O     O_R   0.694660 0.776070 0.052170 -0.515426
O19   O     O_R   0.305340 0.223930 0.947830 -0.529368
O20   O     O_R   0.305340 0.776070 0.947830 -0.514819
O21   O     O_R   0.694660 0.223930 0.052170 -0.507146
O22   O     O_R   0.194660 0.276070 0.052170 -0.518709
O23   O     O_R   0.321190 0.768970 0.142390 -0.481918
O24   O     O_R   0.805340 0.723930 0.947830 -0.531622
O25   O     O_R   0.805340 0.276070 0.947830 -0.496563
O26   O     O_R   0.194660 0.723930 0.052170 -0.512089
O27   O     O_R   0.997960 0.545070 0.590160 -0.461417
O28   O     O_R   0.002040 0.454930 0.409840 -0.453176
O29   O     O_R   0.002040 0.545070 0.409840 -0.499135
O30   O     O_R   0.997960 0.454930 0.590160 -0.539103
O31   O     O_R   0.497960 0.045070 0.590160 -0.460476
O32   O     O_R   0.502040 0.954930 0.409840 -0.454924
O33   O     O_R   0.502040 0.045070 0.409840 -0.507591
O34   O     O_R   0.678810 0.231030 0.857610 -0.502644
O35   O     O_R   0.497960 0.954930 0.590160 -0.543101
O36   O     O_R   0.092180 0.545060 0.590150 -0.539153
O37   O     O_R   0.907820 0.454940 0.409850 -0.553435
O38   O     O_R   0.907820 0.545060 0.409850 -0.529659
O39   O     O_R   0.092180 0.454940 0.590150 -0.509249
O40   O     O_R   0.592180 0.045060 0.590150 -0.534452
O41   O     O_R   0.407820 0.954940 0.409850 -0.556409
O42   O     O_R   0.407820 0.045060 0.409850 -0.525316
O43   O     O_R   0.592180 0.954940 0.590150 -0.505073
O44   O     O_3   0.551874 0.800580 0.728853 -0.515656
O45   O     O_R   0.178810 0.268970 0.857610 -0.475294
O46   O     O_3   0.453025 0.188550 0.250424 -0.527921
O47   O     O_3   0.426104 0.853474 0.158033 -0.539629
O48   O     O_3   0.593452 0.131744 0.865637 -0.534780
O49   O     O_3   0.047547 0.305697 0.737331 -0.520645
O50   O     O_3   0.953402 0.678563 0.226729 -0.537332
O51   O     O_3   0.936095 0.347674 0.174733 -0.554222
O52   O     O_3   0.098814 0.629885 0.870043 -0.531328
O53   O     O_3   0.817004 0.850083 0.923350 -0.552202
O54   O     O_3   0.177310 0.154628 0.063487 -0.559662
O55   O     O_3   0.238550 0.788872 0.186346 -0.546732
O56   O     O_R   0.821190 0.731030 0.142390 -0.484743
O57   O     O_3   0.796534 0.184780 0.860857 -0.569301
O58   O     O_3   0.317201 0.347450 0.917805 -0.546887
O59   O     O_3   0.677565 0.656570 0.066614 -0.559260
O60   O     O_3   0.728640 0.292488 0.175041 -0.545967
O61   O     O_3   0.293587 0.688069 0.851820 -0.574538
O62   O     O_3   0.879481 0.932879 0.967745 -0.538319
O63   O     O_3   0.115074 0.115569 0.135944 -0.560239
O64   O     O_3   0.149261 0.829821 0.214829 -0.569979
O65   O     O_3   0.799535 0.203824 0.722300 -0.529424
O66   O     O_3   0.382939 0.428667 0.962292 -0.550889
O67   O     O_R   0.821190 0.268970 0.142390 -0.513088
O68   O     O_3   0.615217 0.620037 0.141055 -0.559603
O69   O     O_3   0.638780 0.337277 0.197853 -0.562306
O70   O     O_3   0.289110 0.707491 0.706293 -0.535574
O71   O     O_3   0.805347 0.998990 0.852014 -0.551599
O72   O     O_3   0.177910 0.038968 0.228026 -0.530130
O73   O     O_3   0.185767 0.911367 0.292674 -0.554120
O74   O     O_3   0.697515 0.167867 0.562660 -0.541548
O75   O     O_3   0.308777 0.496911 0.849703 -0.560375
O76   O     O_3   0.677555 0.544900 0.237043 -0.526211
O77   O     O_3   0.679944 0.417301 0.279514 -0.545167
O78   O     O_R   0.178810 0.731030 0.857610 -0.497420
O79   O     O_3   0.183744 0.670918 0.549846 -0.536681
O80   O     O_3   0.509114 0.852579 0.587422 -0.530073
O81   O     O_3   0.518299 0.119153 0.357189 -0.533471
O82   O     O_3   0.484224 0.924549 0.272613 -0.520008
O83   O     O_3   0.536749 0.063568 0.746285 -0.521914
O84   O     O_3   0.003045 0.354638 0.590965 -0.535064
O85   O     O_3   0.017954 0.617668 0.354494 -0.530349
O86   O     O_3   0.995493 0.414510 0.290773 -0.522699
O87   O     O_3   0.041200 0.562030 0.750216 -0.521995
O88   O     O_R   0.730990 0.821160 0.961990 -0.493578

loop_
_geom_bond_atom_site_label_1
_geom_bond_atom_site_label_2
_ccdc_geom_bond_type
C22   C150  A    
C109  O82   S    
C108  H104  S    
C104  H94   S    
C94   H70   S    
Cu6   O11   S    
C27   H24   S    
C121  O87   S    
Cu12  O38   S    
C102  H87   S    
C80   H34   S    
C124  C133  A    
C57   C195  A    
C25   C152  A    
C126  C187  S    
C94   O74   S    
C70   H8    S    
C190  O54   S    
C96   O75   S    
C93   H66   S    
C201  O65   S    
Cu7   O34   S    
C114  H117  S    
C91   H62   S    
C2    C90   A    
C85   H47   S    
C65   H222  S    
C127  O44   S    
C131  C140  A    
C119  H130  S    
C11   H159  S    
C162  C171  S    
C47   O54   S    
C83   O69   S    
C151  C155  S    
C4    C12   A    
Cu3   O31   S    
C106  H100  S    
C191  O55   S    
Cu7   O25   S    
C200  C208  A    
C200  O64   S    
C169  O16   A    
Cu12  O30   S    
C122  H139  S    
C154  O5    A    
C46   C124  A    
C197  C206  A    
C197  O62   S    
C40   H161  S    
C161  O35   A    
C163  O19   A    
Cu9   O15   S    
C180  C182  S    
C190  C199  A    
C181  C183  S    
C72   O63   S    
C11   C20   A    
C166  C174  S    
C30   H101  S    
C157  O39   A    
C112  O2    A    
C51   C52   S    
C137  C146  A    
C127  C136  A    
C9    C207  A    
C110  H111  S    
C42   H168  S    
C179  C188  T    
C77   H27   S    
C65   H220  S    
C142  C151  A    
Cu10  O21   S    
C43   C44   S    
C37   C38   S    
C75   H21   S    
C187  O8    A    
C134  O51   S    
C141  O85   S    
C62   H213  S    
C39   O51   S    
C26   C27   S    
C164  C173  S    
C43   O53   S    
C105  O80   S    
C67   H3    S    
C163  C172  S    
C14   H181  S    
Cu2   O29   S    
C173  C182  T    
C29   H68   S    
C116  H123  S    
C166  O21   A    
C108  H106  S    
C1    C79   S    
C121  H137  S    
C29   H90   S    
C52   H190  S    
C135  O52   S    
C189  C197  A    
C16   C25   A    
C34   O49   S    
C79   C127  A    
C30   H113  S    
C120  H133  S    
C97   H78   S    
C2    C190  A    
C72   C73   S    
C32   H143  S    
C72   H15   S    
C21   C35   A    
C31   H135  S    
C92   H63   S    
C59   H206  S    
C8    C17   A    
Cu1   Cu9   S    
Cu5   O22   S    
C107  H103  S    
C160  O33   A    
C38   H156  S    
C117  H126  S    
C66   H223  S    
C162  O18   A    
C34   H147  S    
C145  C161  S    
C103  H91   S    
C205  O70   S    
C26   H214  S    
C74   H20   S    
C3    C11   A    
C115  H119  S    
C106  H98   S    
C78   O66   S    
C101  C132  S    
C98   C99   S    
C87   O71   S    
Cu4   O43   S    
C71   H11   S    
C84   H44   S    
C187  O78   A    
C26   O44   S    
C40   H163  S    
C29   H79   S    
C140  O84   S    
C48   H179  S    
C123  C154  S    
C82   H38   S    
C97   H76   S    
C204  O69   S    
C50   H186  S    
C206  O71   S    
C62   H212  S    
C69   H6    S    
C42   H166  S    
C165  O56   A    
C85   C86   S    
C43   H171  S    
C76   O65   S    
C89   O72   S    
C132  O3    A    
C199  O63   S    
Cu11  O17   S    
C86   H51   S    
C162  O9    A    
C194  O59   S    
C57   C125  A    
C78   C80   S    
C146  C160  S    
C133  O50   S    
C115  C116  S    
C158  O40   A    
C116  H122  S    
C203  O68   S    
C156  O38   A    
C10   C208  A    
C109  H108  S    
C31   H124  S    
Cu3   O41   S    
C172  C181  T    
C167  O22   A    
C26   H2    S    
C74   O64   S    
C107  C108  S    
C20   C148  A    
C170  O26   A    
C95   H71   S    
C89   C91   S    
C195  O60   S    
C53   H193  S    
C119  H131  S    
C66   C67   S    
C79   C198  A    
C165  O6    A    
C119  O86   S    
C128  O46   S    
C111  H114  S    
Cu1   O1    S    
C94   C95   S    
C131  O49   S    
C110  H109  S    
Cu2   O28   S    
C105  H96   S    
C100  C102  S    
C141  C150  A    
C46   C194  A    
C53   O57   S    
C139  C148  A    
C113  C130  A    
C54   H196  S    
Cu4   O40   S    
C98   O76   S    
C191  C200  A    
Cu7   Cu10  S    
C39   C40   S    
C36   H151  S    
C52   H191  S    
C60   H208  S    
Cu9   O88   S    
C44   H173  S    
C178  C186  T    
C87   H52   S    
Cu2   O39   S    
C168  O24   A    
C83   C84   S    
C61   H211  S    
Cu7   O7    S    
C24   C192  A    
C118  H129  S    
C63   O60   S    
C47   H178  S    
Cu5   O5    S    
C170  O17   A    
C144  O87   S    
C100  H85   S    
C83   H41   S    
C45   H175  S    
C49   H183  S    
C167  C175  S    
C43   H169  S    
C54   C55   S    
C1    O88   A    
Cu8   O14   S    
C37   H154  S    
C86   H49   S    
C196  O61   S    
C5    C203  A    
C143  O4    A    
C102  H88   S    
C142  O86   S    
C92   O73   S    
C170  C179  S    
C14   C22   A    
C35   C123  A    
C66   O61   S    
C73   H18   S    
C144  C152  A    
C32   H142  S    
C117  C118  S    
C93   H65   S    
Cu8   O45   S    
C41   H164  S    
C27   H35   S    
C115  H120  S    
C59   H207  S    
C56   C58   S    
C91   H61   S    
C34   C36   S    
Cu4   O33   S    
C61   C62   S    
C65   H221  S    
C124  C165  S    
C9    C18   A    
C152  C153  S    
C80   H32   S    
C115  O84   S    
C87   H53   S    
C74   H19   S    
C125  C176  S    
C56   O58   S    
C140  C149  A    
C208  O73   S    
C176  O67   A    
C101  C129  A    
C125  C134  A    
C87   C88   S    
C104  H93   S    
C68   C126  A    
C122  H140  S    
C41   C42   S    
C76   H25   S    
C85   H48   S    
C7    C205  A    
C3    O74   S    
C40   H162  S    
C6    O77   S    
C37   O50   S    
C28   H57   S    
C120  H132  S    
C7    O79   S    
C25   C68   A    
C15   H192  S    
C28   C29   S    
C88   H55   S    
C114  H116  S    
C51   H188  S    
C189  O53   S    
C30   C31   S    
C168  C177  S    
C89   H59   S    
C177  C185  T    
Cu6   O23   S    
C23   C57   A    
C138  O82   S    
C118  H127  S    
C154  O45   A    
C23   C151  A    
C55   H198  S    
C192  C201  A    
C70   C71   S    
C168  O15   A    
C136  O80   S    
Cu3   O35   S    
C176  O7    A    
C41   H165  S    
C78   H31   S    
C94   H69   S    
C121  H136  S    
C4    O75   S    
C130  C139  A    
C157  O30   A    
Cu12  O37   S    
C81   O68   S    
C155  O28   A    
C80   H33   S    
C13   C19   A    
C120  H134  S    
C97   H77   S    
C163  O10   A    
C93   H67   S    
C195  C204  A    
C58   C59   S    
C53   C54   S    
C82   H40   S    
C19   C147  A    
C193  C202  A    
C113  C143  S    
C32   C33   S    
C28   O46   S    
C60   C61   S    
C17   C145  A    
C117  H125  S    
C111  H115  S    
C134  C142  A    
C4    C202  A    
Cu3   Cu4   S    
C10   C19   A    
Cu10  O67   S    
C36   H150  S    
C50   C51   S    
C17   C198  A    
C68   C196  A    
C99   H84   S    
C8    C206  A    
C5    C14   A    
C99   H82   S    
C106  H99   S    
C129  O47   S    
C48   C49   S    
C22   C46   A    
C126  C135  A    
C3    C201  A    
C77   H29   S    
C132  O23   A    
C63   H216  S    
Cu5   O10   S    
C44   C45   S    
C48   H180  S    
Cu5   Cu8   S    
C123  C131  A    
C82   H39   S    
C64   H219  S    
C96   H75   S    
C69   H5    S    
C174  C183  T    
C119  C120  S    
C42   H167  S    
C30   O47   S    
C58   H204  S    
C105  C106  S    
C133  C141  A    
C164  O11   A    
C77   H28   S    
C64   C65   S    
Cu11  O20   S    
C75   H22   S    
C59   H205  S    
C109  C110  S    
Cu8   O2    S    
C33   H144  S    
C92   C93   S    
C184  C186  S    
C111  C114  S    
Cu1   O9    S    
C67   H4    S    
C96   H74   S    
C109  H107  S    
Cu2   O36   S    
C35   C193  A    
C33   H145  S    
Cu12  O27   S    
C92   H64   S    
C50   O55   S    
C164  O20   A    
C108  H105  S    
C104  H95   S    
C137  O81   S    
Cu10  O4    S    
Cu4   O32   S    
Cu6   O8    S    
C52   H189  S    
C139  O83   S    
C39   H160  S    
C175  C184  T    
C189  C198  A    
C2    C18   A    
C90   C112  S    
C110  H110  S    
C98   H80   S    
C114  H118  S    
C81   C82   S    
Cu2   Cu12  S    
C6    C204  A    
C38   H155  S    
C95   H73   S    
C66   H224  S    
Cu6   Cu11  S    
C160  O42   A    
C103  H92   S    
C36   H152  S    
C153  O27   A    
C28   H46   S    
C32   O48   S    
C196  C205  A    
C98   H81   S    
C88   H54   S    
C155  O37   A    
C103  C104  S    
C6    C15   A    
Cu11  O3    S    
C129  C138  A    
C20   C24   A    
C73   H16   S    
C71   H12   S    
Cu6   O26   S    
C84   H43   S    
C169  O25   A    
C56   H200  S    
Cu5   O12   S    
Cu9   O18   S    
C100  H86   S    
C15   C23   A    
Cu9   O56   S    
C55   H199  S    
C24   C113  A    
C150  C156  S    
C50   H185  S    
C202  O66   S    
C143  O34   A    
C207  O72   S    
C69   H7    S    
C130  O48   S    
C45   H174  S    
C49   H182  S    
C58   H202  S    
C38   H157  S    
C74   C75   S    
C61   H210  S    
Cu8   O19   S    
C85   O70   S    
C37   H153  S    
C76   C77   S    
C86   H50   S    
C60   O59   S    
C159  O32   A    
C27   H13   S    
C185  C188  S    
C33   H146  S    
C102  H89   S    
C12   C21   A    
C112  O12   A    
C63   C64   S    
C116  H121  S    
C67   C69   S    
C41   O52   S    
C1    O1    A    
C44   H172  S    
C128  C137  A    
C73   H17   S    
C63   H217  S    
Cu3   O42   S    
C107  O81   S    
Cu11  O78   S    
C47   C48   S    
C111  O83   S    
C138  C147  A    
C96   C97   S    
C199  C207  A    
C121  C122  S    
C148  C158  S    
C95   H72   S    
C34   H149  S    
C53   H194  S    
C39   H158  S    
C159  O41   A    
C135  C144  A    
C21   C149  A    
C171  C180  T    
C16   H203  S    
C13   C101  A    
C105  H97   S    
C169  C178  S    
Cu1   O24   S    
C99   H83   S    
C147  C159  S    
C167  O14   A    
C47   H177  S    
C7    C16   A    
C54   H195  S    
C161  O43   A    
Cu7   O13   S    
C107  H102  S    
C76   H26   S    
C136  C145  A    
C158  O31   A    
C18   C146  A    
C56   H201  S    
C5    O76   S    
C193  O58   S    
C10   H148  S    
C156  O29   A    
C9    H112  S    
C103  O79   S    
C70   O62   S    
C81   H37   S    
C13   C191  A    
C64   H218  S    
C78   H30   S    
C70   H9    S    
C88   H56   S    
C51   H187  S    
C12   H170  S    
C60   H209  S    
C31   H141  S    
C122  H138  S    
C194  C203  A    
C89   H58   S    
C71   H10   S    
C72   H14   S    
C84   H45   S    
C81   H36   S    
C118  H128  S    
C91   H60   S    
C75   H23   S    
C192  O57   S    
Cu10  O16   S    
C55   H197  S    
C153  O36   A    
C117  O85   S    
C100  O77   S    
C62   H215  S    
C90   C128  A    
C83   H42   S    
C149  C157  S    
Cu1   O6    S    
C45   H176  S    
C8    H1    S    
C49   H184  S    
C166  O13   A    
