data_mof_unit_3185.cif
_audit_creation_date              2013-03-05T15:41:55-0500
_audit_creation_method            fapswitch 2.2
_symmetry_space_group_name_H-M    P1
_symmetry_Int_Tables_number       1
_space_group_crystal_system       triclinic
_cell_length_a                    25.035498
_cell_length_b                    17.019417
_cell_length_c                    15.666268
_cell_angle_alpha                 89.622969
_cell_angle_beta                  49.954154
_cell_angle_gamma                 89.931442
_cell_volume                      5109.93976862

loop_
_atom_site_label
_atom_site_type_symbol
_atom_site_description
_atom_site_fract_x
_atom_site_fract_y
_atom_site_fract_z
_atom_type_partial_charge
C1    C     C_R   0.331434 0.102483 0.800410 -0.069876
C2    C     C_R   0.653585 0.862542 0.226204 -0.103798
C3    C     C_R   0.668522 0.103446 0.195373 -0.137536
C4    C     C_R   0.332124 0.895207 0.804724 -0.125244
C5    C     C_R   0.856019 0.648011 0.744502 -0.018845
C6    C     C_R   0.136018 0.347694 0.274431 -0.048972
C7    C     C_R   0.146549 0.646565 0.248508 -0.090299
C8    C     C_R   0.855221 0.351726 0.747269 -0.084262
H1    H     H_    0.282273 0.087481 0.822214 0.144068
H2    H     H_    0.705944 0.853808 0.195320 0.104449
H3    H     H_    0.719073 0.100798 0.173304 0.165694
H4    H     H_    0.281024 0.897437 0.828492 0.163333
H5    H     H_    0.809486 0.662443 0.756653 0.112122
H6    H     H_    0.176488 0.329449 0.276168 0.164945
H7    H     H_    0.189563 0.663807 0.244180 0.159830
H8    H     H_    0.812847 0.334365 0.749756 0.169519
N1    N     N_R   0.389620 0.081040 0.705440 -0.074771
N2    N     N_R   0.610380 0.918960 0.294560 -0.058988
N3    N     N_R   0.610380 0.081040 0.294560 -0.067468
N4    N     N_R   0.389620 0.918960 0.705440 -0.062188
N5    N     N_R   0.889620 0.581040 0.705440 -0.058246
N6    N     N_R   0.110380 0.418960 0.294560 -0.068604
N7    N     N_R   0.110380 0.581040 0.294560 -0.066047
N8    N     N_R   0.889620 0.418960 0.705440 -0.066651
C9    C     C_R   0.586737 0.147492 0.592531 0.368302
C10   C     C_R   0.382291 0.901852 0.409371 0.326440
C11   C     C_R   0.416272 0.150954 0.408683 0.384736
C12   C     C_R   0.590299 0.854301 0.592566 0.382839
C13   C     C_R   0.116798 0.607576 0.589321 0.270687
C14   C     C_R   0.882605 0.396164 0.410070 0.295850
C15   C     C_R   0.885739 0.608427 0.407965 0.352710
C16   C     C_R   0.115076 0.392755 0.592364 0.304766
N9    N     N_R   0.582320 0.079840 0.556630 -0.086390
N10   N     N_R   0.417680 0.920160 0.443370 -0.095030
N11   N     N_R   0.417680 0.079840 0.443370 -0.085501
N12   N     N_R   0.582320 0.920160 0.556630 -0.092435
N13   N     N_R   0.082320 0.579840 0.556630 -0.100126
N14   N     N_R   0.917680 0.420160 0.443370 -0.104231
N15   N     N_R   0.917680 0.579840 0.443370 -0.108937
N16   N     N_R   0.082320 0.420160 0.556630 -0.102596
C17   C     C_R   0.662558 0.147146 0.407203 -0.143777
C18   C     C_R   0.310057 0.896407 0.593629 -0.222092
C19   C     C_R   0.339561 0.148271 0.592688 -0.162660
C20   C     C_R   0.667645 0.857963 0.406765 -0.198455
C21   C     C_R   0.188750 0.608969 0.404670 -0.244900
C22   C     C_R   0.809958 0.395925 0.594560 -0.183510
C23   C     C_R   0.810653 0.604343 0.593305 -0.260852
C24   C     C_R   0.189459 0.395157 0.407552 -0.203651
H9    H     H_    0.704679 0.161077 0.320814 0.189577
H10   H     H_    0.264318 0.891640 0.680664 0.183652
H11   H     H_    0.296755 0.161313 0.678782 0.194990
H12   H     H_    0.713817 0.849587 0.322099 0.175090
H13   H     H_    0.235055 0.611743 0.317902 0.192975
H14   H     H_    0.763012 0.400619 0.680401 0.199227
H15   H     H_    0.763183 0.600269 0.678744 0.180417
H16   H     H_    0.236931 0.400427 0.322138 0.205830
N17   N     N_R   0.627920 0.078930 0.443400 -0.077104
N18   N     N_R   0.372080 0.921070 0.556600 -0.076022
N19   N     N_R   0.372080 0.078930 0.556600 -0.077824
N20   N     N_R   0.627920 0.921070 0.443400 -0.067414
N21   N     N_R   0.127920 0.578930 0.443400 -0.083330
N22   N     N_R   0.872080 0.421070 0.556600 -0.085890
N23   N     N_R   0.872080 0.578930 0.556600 -0.076406
N24   N     N_R   0.127920 0.421070 0.443400 -0.085595
C25   C     C_R   0.584077 0.093008 0.187781 0.022740
C26   C     C_R   0.418376 0.902564 0.809397 -0.092103
C27   C     C_R   0.414454 0.098704 0.811669 -0.042872
C28   C     C_R   0.561673 0.862534 0.232996 -0.103712
C29   C     C_R   0.058493 0.646013 0.246516 -0.094093
C30   C     C_R   0.943226 0.352408 0.749247 -0.090848
C31   C     C_R   0.940580 0.645092 0.754943 -0.117398
C32   C     C_R   0.051123 0.348781 0.266254 -0.107951
H17   H     H_    0.560160 0.078328 0.152272 0.184526
H18   H     H_    0.443765 0.914255 0.843297 0.175142
H19   H     H_    0.436610 0.088272 0.851153 0.178533
H20   H     H_    0.526964 0.848512 0.216745 0.158334
H21   H     H_    0.021891 0.667326 0.237772 0.166047
H22   H     H_    0.980667 0.331262 0.756307 0.148860
H23   H     H_    0.973675 0.663474 0.772004 0.171762
H24   H     H_    0.012760 0.327176 0.262008 0.154640
N25   N     N_R   0.555090 0.077730 0.294590 -0.063712
N26   N     N_R   0.444910 0.922270 0.705410 -0.065318
N27   N     N_R   0.444910 0.077730 0.705410 -0.066444
N28   N     N_R   0.555090 0.922270 0.294590 -0.049839
N29   N     N_R   0.055090 0.577730 0.294590 -0.037872
N30   N     N_R   0.944910 0.422270 0.705410 -0.033742
N31   N     N_R   0.944910 0.577730 0.705410 -0.040013
N32   N     N_R   0.055090 0.422270 0.294590 -0.032461
C33   C     C_R   0.344098 0.115934 0.870358 0.136211
C34   C     C_R   0.622549 0.824435 0.190725 0.146379
C35   C     C_R   0.654586 0.107266 0.124292 0.097676
C36   C     C_R   0.347919 0.888628 0.873735 0.126805
C37   C     C_R   0.883967 0.687856 0.783060 0.098270
C38   C     C_R   0.102389 0.302709 0.251195 0.123456
C39   C     C_R   0.116066 0.688238 0.214997 0.110149
C40   C     C_R   0.886834 0.308602 0.778062 0.099038
C41   C     C_R   0.637496 0.191742 0.500573 -0.029447
C42   C     C_R   0.314874 0.883700 0.502303 0.081516
C43   C     C_R   0.366949 0.195845 0.500197 -0.025514
C44   C     C_R   0.644164 0.814292 0.499228 -0.007717
C45   C     C_R   0.182361 0.628991 0.494929 0.097771
C46   C     C_R   0.815455 0.379524 0.503743 0.029317
C47   C     C_R   0.818173 0.623561 0.501421 0.050836
C48   C     C_R   0.182575 0.374892 0.499369 0.032414
Ni1   Ni    Ni4+2 0.382970 1.000000 0.629840 0.186887
Ni2   Ni    Ni4+2 0.617030 0.000000 0.370160 0.197832
Ni3   Ni    Ni4+2 0.882970 0.500000 0.629840 0.199290
Ni4   Ni    Ni4+2 0.117030 0.500000 0.370160 0.191342
Ni5   Ni    Ni4+2 0.514540 1.000000 0.629840 0.284235
Ni6   Ni    Ni4+2 0.485460 0.000000 0.370160 0.299612
Ni7   Ni    Ni4+2 0.014540 0.500000 0.629840 0.314482
Ni8   Ni    Ni4+2 0.985460 0.500000 0.370160 0.319175
C49   C     C_3   0.343410 0.334483 0.431675 0.496601
C50   C     C_3   0.667979 0.673180 0.543973 0.566937
C51   C     C_3   0.656644 0.327275 0.570959 0.481999
C52   C     C_3   0.310787 0.740409 0.459613 0.451611
C53   C     C_3   0.784379 0.748468 0.461284 0.568467
C54   C     C_3   0.220929 0.261597 0.560336 0.550356
C55   C     C_3   0.184467 0.775186 0.534769 0.464028
C56   C     C_3   0.783535 0.264540 0.437253 0.458556
C57   C     C_3   0.712100 0.776510 0.563564 -0.631493
C58   C     C_3   0.287944 0.224897 0.456665 -0.632547
C59   C     C_3   0.251044 0.816006 0.432321 -0.507419
C60   C     C_3   0.719129 0.222605 0.540499 -0.574026
C61   C     C_3   0.274819 0.372472 0.535443 -0.536678
C62   C     C_3   0.741381 0.644285 0.440566 -0.612290
C63   C     C_3   0.721764 0.370681 0.467896 -0.532216
C64   C     C_3   0.244200 0.700060 0.562569 -0.555877
H25   H     H_    0.701717 0.830972 0.610614 0.200588
H26   H     H_    0.293319 0.164926 0.424502 0.203380
H27   H     H_    0.249505 0.862158 0.383748 0.214459
H28   H     H_    0.715483 0.162527 0.571962 0.189580
H29   H     H_    0.269299 0.434271 0.562168 0.215662
H30   H     H_    0.752587 0.589184 0.394225 0.205509
H31   H     H_    0.722081 0.431084 0.440492 0.197877
H32   H     H_    0.244010 0.654151 0.613169 0.206831
C65   C     C_3   0.686386 0.757773 0.499113 -0.201349
C66   C     C_3   0.326678 0.256773 0.497101 -0.204517
C67   C     C_3   0.275791 0.821950 0.500522 -0.119234
C68   C     C_3   0.678029 0.251323 0.503281 -0.121688
C69   C     C_3   0.236654 0.338534 0.496564 -0.102508
C70   C     C_3   0.766846 0.663614 0.504992 -0.173101
C71   C     C_3   0.763236 0.340830 0.504263 -0.087180
C72   C     C_3   0.219632 0.693868 0.494344 -0.143425
C73   C     C_3   0.304885 0.302940 0.392822 0.524808
C74   C     C_3   0.694131 0.690932 0.607466 0.585722
C75   C     C_3   0.697747 0.299388 0.607266 0.514185
C76   C     C_3   0.286090 0.734090 0.392612 0.513266
C77   C     C_3   0.759170 0.730500 0.397085 0.581434
C78   C     C_3   0.258874 0.293892 0.599804 0.611729
C79   C     C_3   0.209045 0.781809 0.602079 0.509085
C80   C     C_3   0.742801 0.293300 0.401100 0.513037
C81   C     C_2   0.705248 0.115081 0.002628 -0.385679
C82   C     C_2   0.299450 0.878470 0.994709 -0.288604
C83   C     C_2   0.288810 0.133043 0.987954 -0.328098
C84   C     C_2   0.657406 0.765829 0.105449 -0.416171
C85   C     C_2   0.140160 0.764288 0.159673 -0.370659
C86   C     C_2   0.864059 0.230775 0.830687 -0.355402
C87   C     C_2   0.841167 0.741683 0.874866 -0.361776
C88   C     C_2   0.130315 0.229360 0.192112 -0.399313
C89   C     C_2   0.772930 0.131972 0.949105 0.390888
C90   C     C_2   0.231638 0.864280 0.050200 0.383056
C91   C     C_2   0.227656 0.165086 0.024684 0.358269
C92   C     C_2   0.721408 0.783863 0.011723 0.502750
C93   C     C_2   0.207769 0.784723 0.097525 0.440544
C94   C     C_2   0.796499 0.209393 0.894337 0.478116
C95   C     C_2   0.773365 0.722075 0.955279 0.408576
C96   C     C_2   0.199856 0.222426 0.111431 0.492289
H33   H     H_    0.323474 0.854155 0.027261 0.156695
H34   H     H_    0.682562 0.134823 0.965951 0.168977
H35   H     H_    0.639383 0.705534 0.130765 0.172840
H36   H     H_    0.302461 0.132193 0.041354 0.141896
H37   H     H_    0.902208 0.191560 0.819939 0.165823
H38   H     H_    0.101933 0.803305 0.171294 0.160200
H39   H     H_    0.094263 0.186991 0.203096 0.120399
H40   H     H_    0.860415 0.800966 0.865276 0.174691
N33   N     N_R   0.557811 0.160260 0.704551 0.192372
O1    O     O_R   0.515979 0.219139 0.759013 -0.451750
O2    O     O_R   0.560514 0.104281 0.758633 -0.444334
N34   N     N_R   0.401867 0.930853 0.306243 0.219573
O3    O     O_R   0.463407 0.961231 0.231020 -0.419654
O4    O     O_R   0.354827 0.941966 0.296105 -0.437580
N35   N     N_R   0.450566 0.171202 0.295880 0.195468
O5    O     O_R   0.444958 0.125717 0.235655 -0.420772
O6    O     O_R   0.490707 0.232909 0.251394 -0.463506
N36   N     N_R   0.563589 0.841593 0.704099 0.205327
O7    O     O_R   0.567212 0.897542 0.756397 -0.432608
O8    O     O_R   0.540299 0.772704 0.750735 -0.393139
N37   N     N_R   0.103606 0.583093 0.689344 0.235745
O9    O     O_R   0.042527 0.590157 0.786872 -0.395357
O10   O     O_R   0.153895 0.553413 0.683149 -0.404752
N38   N     N_R   0.900324 0.418607 0.306225 0.243119
O11   O     O_R   0.961037 0.402983 0.211386 -0.378159
O12   O     O_R   0.855832 0.458233 0.306415 -0.444629
N39   N     N_R   0.914099 0.606186 0.293978 0.242065
O13   O     O_R   0.966931 0.561148 0.223118 -0.349257
O14   O     O_R   0.897334 0.659205 0.255214 -0.366971
N40   N     N_R   0.089010 0.401760 0.704796 0.256703
O15   O     O_R   0.030162 0.437232 0.778664 -0.360071
O16   O     O_R   0.124919 0.378955 0.733686 -0.338949
O17   O     O_3   0.408092 0.373767 0.358203 -0.578596
C97   C     C_3   0.431840 0.395647 0.415540 0.336171
H41   H     H_    0.456014 0.344117 0.422945 0.110977
H42   H     H_    0.389439 0.419293 0.500122 0.060820
C98   C     C_3   0.486377 0.460267 0.350105 -0.887214
H43   H     H_    0.461862 0.514287 0.349013 0.263638
H44   H     H_    0.509441 0.473823 0.389672 0.193054
H45   H     H_    0.528312 0.441334 0.263079 0.270063
O18   O     O_3   0.602846 0.636613 0.597958 -0.556788
C99   C     C_3   0.594201 0.619054 0.519787 0.304653
H46   H     H_    0.628498 0.569284 0.466523 0.064255
H47   H     H_    0.605982 0.670505 0.465704 0.071304
C100  C     C_3   0.518620 0.595433 0.582845 -0.906566
H48   H     H_    0.484108 0.646686 0.629070 0.258821
H49   H     H_    0.511746 0.573714 0.523759 0.201617
H50   H     H_    0.503273 0.548440 0.644177 0.273064
O19   O     O_3   0.587973 0.356402 0.646060 -0.588526
C101  C     C_3   0.565310 0.379623 0.587290 0.348019
H51   H     H_    0.581443 0.338136 0.519745 0.073683
H52   H     H_    0.586831 0.438650 0.549802 0.093882
C102  C     C_3   0.485959 0.383264 0.667810 -0.882442
H53   H     H_    0.466856 0.421192 0.739840 0.266784
H54   H     H_    0.467919 0.407648 0.624273 0.194333
H55   H     H_    0.463569 0.323426 0.699080 0.283277
O20   O     O_3   0.380929 0.725207 0.409806 -0.630969
C103  C     C_3   0.385365 0.701901 0.491591 0.290994
H56   H     H_    0.370308 0.638960 0.513540 0.113089
H57   H     H_    0.351569 0.737990 0.568538 0.093496
C104  C     C_3   0.460152 0.711589 0.444961 -0.931503
H58   H     H_    0.475865 0.774184 0.424564 0.258613
H59   H     H_    0.464080 0.692895 0.508463 0.218602
H60   H     H_    0.495888 0.675538 0.368859 0.263108
O21   O     O_3   0.849238 0.786097 0.409029 -0.573640
C105  C     C_3   0.852192 0.815723 0.489863 0.273977
H61   H     H_    0.832125 0.772830 0.558587 0.072363
H62   H     H_    0.821461 0.870853 0.525494 0.109786
C106  C     C_3   0.927699 0.834102 0.434748 -0.898129
H63   H     H_    0.949469 0.878030 0.366782 0.263217
H64   H     H_    0.930592 0.858270 0.497368 0.213205
H65   H     H_    0.959379 0.779674 0.399470 0.245419
O22   O     O_3   0.154358 0.225931 0.635074 -0.583198
C107  C     C_3   0.141944 0.178502 0.575839 0.267337
H66   H     H_    0.174500 0.124621 0.545784 0.120993
H67   H     H_    0.153007 0.210727 0.503752 0.082777
C108  C     C_3   0.065821 0.153187 0.653280 -0.871642
H68   H     H_    0.031955 0.205546 0.682241 0.237974
H69   H     H_    0.055942 0.114055 0.608258 0.207662
H70   H     H_    0.052767 0.121047 0.726574 0.270511
O23   O     O_3   0.115079 0.792528 0.582085 -0.633418
C109  C     C_3   0.106877 0.790384 0.500729 0.285021
H71   H     H_    0.064618 0.747858 0.529050 0.111843
H72   H     H_    0.154024 0.771352 0.416254 0.082836
C110  C     C_3   0.085117 0.871023 0.490479 -0.919040
H73   H     H_    0.126546 0.914867 0.461914 0.257231
H74   H     H_    0.076715 0.868931 0.429001 0.209000
H75   H     H_    0.035835 0.889283 0.572475 0.263556
O24   O     O_3   0.851491 0.233960 0.357482 -0.623105
C111  C     C_3   0.871368 0.190821 0.410169 0.320906
H76   H     H_    0.833859 0.142551 0.463089 0.102915
H77   H     H_    0.876001 0.229986 0.461671 0.079179
C112  C     C_3   0.941799 0.153055 0.321194 -0.935973
H78   H     H_    0.979904 0.198181 0.260710 0.260497
H79   H     H_    0.961284 0.124359 0.360343 0.207742
H80   H     H_    0.936770 0.108147 0.275588 0.266871
O25   O     O_3   0.324384 0.316012 0.286805 -0.648726
C113  C     C_3   0.377028 0.263962 0.207612 0.321022
H81   H     H_    0.359671 0.201987 0.233337 0.147711
H82   H     H_    0.425421 0.275995 0.194053 0.202508
C114  C     C_3   0.393271 0.277111 0.096910 -0.871238
H83   H     H_    0.411100 0.338538 0.067728 0.263200
H84   H     H_    0.435134 0.236424 0.033381 0.241975
H85   H     H_    0.345979 0.265692 0.106681 0.287922
O26   O     O_3   0.657735 0.662410 0.717321 -0.581648
C115  C     C_3   0.661362 0.717581 0.780302 0.272969
H86   H     H_    0.628942 0.769772 0.798060 0.176162
H87   H     H_    0.716074 0.736612 0.736083 0.043566
C116  C     C_3   0.633155 0.680481 0.890962 -0.837740
H88   H     H_    0.665870 0.629689 0.876639 0.256347
H89   H     H_    0.633757 0.724335 0.942446 0.208771
H90   H     H_    0.578729 0.660043 0.936911 0.267817
O27   O     O_3   0.680116 0.309717 0.712162 -0.654345
C117  C     C_3   0.620939 0.265389 0.795205 0.313210
H91   H     H_    0.628587 0.202474 0.772112 0.157640
H92   H     H_    0.574207 0.289916 0.811335 0.203668
C118  C     C_3   0.609107 0.271108 0.902989 -0.884748
H93   H     H_    0.601105 0.333371 0.929453 0.268563
H94   H     H_    0.562230 0.236432 0.969738 0.241650
H95   H     H_    0.655001 0.247409 0.890331 0.288470
O28   O     O_3   0.326259 0.701700 0.284839 -0.630391
C119  C     C_3   0.374586 0.757842 0.204737 0.305221
H96   H     H_    0.408917 0.779137 0.221809 0.144558
H97   H     H_    0.347112 0.808302 0.202739 0.125849
C120  C     C_3   0.420272 0.720225 0.090164 -0.819299
H98   H     H_    0.387557 0.700270 0.069545 0.268828
H99   H     H_    0.459259 0.763529 0.026160 0.237652
H100  H     H_    0.448076 0.668927 0.089248 0.256723
O29   O     O_3   0.798958 0.760445 0.287469 -0.582899
C121  C     C_3   0.793385 0.711812 0.221242 0.292896
H101  H     H_    0.739015 0.711554 0.252165 0.026040
H102  H     H_    0.809702 0.650614 0.219263 0.150555
C122  C     C_3   0.842525 0.743858 0.102515 -0.834920
H103  H     H_    0.895591 0.752126 0.075032 0.287592
H104  H     H_    0.846460 0.702062 0.045082 0.188645
H105  H     H_    0.823300 0.801140 0.097827 0.225751
O30   O     O_3   0.230603 0.282540 0.711618 -0.615374
C123  C     C_3   0.251531 0.342223 0.747317 0.391321
H106  H     H_    0.210931 0.346496 0.839338 0.146388
H107  H     H_    0.254385 0.401633 0.715116 0.093071
C124  C     C_3   0.320097 0.322062 0.720999 -1.101828
H108  H     H_    0.362824 0.316551 0.630029 0.251432
H109  H     H_    0.333915 0.369349 0.752305 0.237322
H110  H     H_    0.314809 0.266066 0.762392 0.302795
O31   O     O_3   0.168744 0.813953 0.710045 -0.638381
C125  C     C_3   0.117241 0.759581 0.789100 0.311997
H111  H     H_    0.141529 0.705548 0.790990 0.132506
H112  H     H_    0.082382 0.743844 0.770859 0.153199
C126  C     C_3   0.072847 0.796279 0.904290 -0.843182
H113  H     H_    0.046561 0.849717 0.906272 0.257581
H114  H     H_    0.032527 0.753605 0.967534 0.242210
H115  H     H_    0.106088 0.812609 0.925385 0.258186
O32   O     O_3   0.761663 0.283499 0.295289 -0.660258
C127  C     C_3   0.817110 0.333946 0.216200 0.346590
H116  H     H_    0.862476 0.325162 0.212638 0.195746
H117  H     H_    0.799503 0.396085 0.235354 0.129989
C128  C     C_3   0.840778 0.315565 0.101591 -0.881393
H118  H     H_    0.796858 0.324577 0.101832 0.225427
H119  H     H_    0.884524 0.355098 0.038001 0.255762
H120  H     H_    0.858478 0.253623 0.079475 0.274861
O33   O     O_3   0.195055 0.906011 0.026430 -0.646712
C129  C     C_3   0.145365 0.954194 0.118177 0.255458
H121  H     H_    0.169074 0.012695 0.105264 0.100682
H122  H     H_    0.126609 0.930926 0.200304 0.069105
C130  C     C_3   0.081892 0.963059 0.125481 -0.929632
H123  H     H_    0.054445 0.906031 0.146394 0.263453
H124  H     H_    0.044906 0.005842 0.191470 0.215883
H125  H     H_    0.098155 0.983728 0.044415 0.259451
O34   O     O_3   0.810197 0.098260 0.977729 -0.660878
C131  C     C_3   0.813085 0.016047 0.964932 0.276405
H126  H     H_    0.830705 0.999997 0.881395 0.110672
H127  H     H_    0.761206 0.989481 0.031782 0.157881
C132  C     C_3   0.864810 0.982199 0.975586 -0.865039
H128  H     H_    0.847344 0.994783 0.059683 0.255372
H129  H     H_    0.868321 0.917586 0.963781 0.218847
H130  H     H_    0.917278 0.008580 0.911203 0.258386
O35   O     O_3   0.741624 0.861518 0.978498 -0.686757
C133  C     C_3   0.716397 0.888711 0.924570 0.291072
H131  H     H_    0.708188 0.953036 0.937617 0.124267
H132  H     H_    0.664893 0.863068 0.959182 0.106488
C134  C     C_3   0.769945 0.874107 0.799354 -1.042852
H133  H     H_    0.751350 0.899879 0.757284 0.235916
H134  H     H_    0.820678 0.901582 0.764312 0.266883
H135  H     H_    0.777630 0.810117 0.782733 0.250442
O36   O     O_3   0.214683 0.181482 0.952223 -0.654995
C135  C     C_3   0.151586 0.146812 0.988927 0.200778
H136  H     H_    0.122601 0.114009 0.068593 0.080890
H137  H     H_    0.163660 0.103988 0.925523 0.133172
C136  C     C_3   0.104074 0.209430 0.999737 -0.788878
H138  H     H_    0.127550 0.233987 0.916501 0.295175
H139  H     H_    0.052752 0.182976 0.036225 0.222081
H140  H     H_    0.095818 0.257711 0.054323 0.248191
O37   O     O_3   0.746015 0.262804 0.920106 -0.664533
C137  C     C_3   0.722145 0.304512 0.016613 0.245662
H141  H     H_    0.761699 0.348890 0.995025 0.116709
H142  H     H_    0.710970 0.265198 0.083684 0.115892
C138  C     C_3   0.655025 0.346754 0.063005 -0.851343
H143  H     H_    0.614556 0.303535 0.085462 0.299280
H144  H     H_    0.636271 0.379171 0.138918 0.212350
H145  H     H_    0.664293 0.388928 0.000243 0.255363
O38   O     O_3   0.257818 0.729755 0.070136 -0.656567
C139  C     C_3   0.279545 0.687980 0.974769 0.259266
H146  H     H_    0.296297 0.728384 0.905113 0.097014
H147  H     H_    0.236685 0.649585 0.995132 0.120552
C140  C     C_3   0.341254 0.636259 0.934828 -0.857973
H148  H     H_    0.326514 0.595285 0.002510 0.258252
H149  H     H_    0.357568 0.601517 0.861754 0.209415
H150  H     H_    0.385853 0.673328 0.909826 0.281010
O39   O     O_3   0.246040 0.279198 0.094652 -0.663310
C141  C     C_3   0.270520 0.327160 0.001492 0.318265
H151  H     H_    0.227458 0.344731 0.001747 0.116938
H152  H     H_    0.311430 0.295762 0.922891 0.136914
C142  C     C_3   0.302914 0.401732 0.003997 -0.926845
H153  H     H_    0.347937 0.386877 0.999207 0.275181
H154  H     H_    0.321558 0.439820 0.931629 0.216345
H155  H     H_    0.263717 0.434537 0.082034 0.260007
O40   O     O_3   0.749844 0.645221 0.969270 -0.647032
C143  C     C_3   0.764191 0.601658 0.029312 0.281153
H156  H     H_    0.739659 0.629301 0.111333 0.065532
H157  H     H_    0.821391 0.595816 0.980580 0.132564
C144  C     C_3   0.733968 0.519641 0.050880 -0.910563
H158  H     H_    0.757502 0.490818 0.970216 0.267087
H159  H     H_    0.745486 0.484038 0.096994 0.209902
H160  H     H_    0.676524 0.523035 0.101290 0.257334

loop_
_geom_bond_atom_site_label_1
_geom_bond_atom_site_label_2
_geom_bond_distance
_ccdc_geom_bond_type
C127  H117  1.111601 S    
C136  H138  1.108041 S    
C119  C120  1.520345 S    
C70   C74   1.534459 S    
C18   N18   1.327800 A    
O34   C131  1.409981 S    
C130  H123  1.108723 S    
C11   C43   1.377697 A    
C117  H91   1.108862 S    
C22   N22   1.328042 A    
C19   C43   1.390213 A    
C35   C81   1.464760 S    
C62   C77   1.553542 S    
C122  H105  1.109461 S    
C127  C128  1.520081 S    
C109  H72   1.115434 S    
C14   N14   1.342835 A    
C115  H86   1.111813 S    
C50   C65   1.533180 S    
C37   C87   1.444934 S    
C95   O40   1.392003 S    
C89   O34   1.390868 S    
C6    C38   1.351699 A    
C28   C34   1.373420 A    
C16   C48   1.381000 A    
C43   C66   1.467619 S    
C3    N3    1.327319 A    
C49   O17   1.410024 S    
C4    H4    1.078799 S    
C68   C80   1.532946 S    
C41   C68   1.455410 S    
C5    H5    1.080878 S    
C54   O22   1.413883 S    
C69   C73   1.537645 S    
C103  H57   1.114599 S    
C32   C38   1.388595 A    
C109  C110  1.521189 S    
C7    H7    1.075600 S    
C8    H8    1.077790 S    
C108  H68   1.107837 S    
C105  H62   1.111951 S    
C17   H9    1.076932 S    
N34   O4    1.299090 A    
C100  H49   1.110276 S    
C60   C75   1.544070 S    
C107  C108  1.519651 S    
C97   H41   1.112016 S    
C140  H150  1.110762 S    
C11   N11   1.333148 A    
C125  H111  1.112545 S    
C122  H103  1.110745 S    
C111  H76   1.111374 S    
C81   C89   1.351521 D    
C105  C106  1.521301 S    
C126  H115  1.111171 S    
C143  H157  1.112336 S    
N35   O5    1.299802 A    
C104  H58   1.107493 S    
C26   N26   1.344799 A    
C90   C93   1.469260 S    
C14   C46   1.371504 A    
C123  H106  1.110107 S    
N8    Ni3   1.887982 S    
C63   C71   1.554625 S    
C64   C72   1.542529 S    
C129  H122  1.117590 S    
C136  H140  1.109338 S    
C114  H84   1.110653 S    
C142  H153  1.109429 S    
C13   N37   1.436647 S    
C143  C144  1.517392 S    
C121  H101  1.113091 S    
C112  H79   1.110464 S    
C130  H125  1.109732 S    
C25   C35   1.379413 A    
C29   C39   1.385568 A    
C31   C37   1.389593 A    
C55   C59   1.543529 S    
C120  H100  1.110349 S    
C18   C42   1.374888 A    
C53   C70   1.532610 S    
C118  H94   1.110609 S    
C138  H143  1.109522 S    
C15   N39   1.436582 S    
C80   O32   1.412382 S    
C78   O30   1.416769 S    
C55   O23   1.413839 S    
C87   C95   1.350507 D    
C88   C96   1.346247 D    
C11   N35   1.420987 S    
N13   Ni7   1.876686 S    
C3    H3    1.077160 S    
C44   C65   1.427498 S    
N39   O13   1.299512 A    
C4    N4    1.329200 A    
N3    Ni2   1.887982 S    
N31   Ni7   1.884131 S    
N25   Ni6   1.876103 S    
C62   H30   1.109709 S    
O32   C127  1.405317 S    
C108  H70   1.110745 S    
N10   N18   1.358172 A    
C48   C69   1.462753 S    
N40   O16   1.297735 A    
N36   O7    1.300889 A    
N14   N22   1.358172 A    
C27   N27   1.361551 A    
C134  H133  1.110880 S    
N4    N26   1.385121 A    
C29   H21   1.072434 S    
N29   Ni8   1.876103 S    
C94   O37   1.390056 S    
C31   H23   1.068870 S    
C139  H146  1.114209 S    
O23   C109  1.416105 S    
C120  H98   1.110446 S    
N11   N19   1.357937 A    
C104  H60   1.110892 S    
C110  H73   1.110419 S    
C50   C62   1.555874 S    
C137  H141  1.110351 S    
C90   O33   1.384127 S    
C26   H18   1.077845 S    
C59   C67   1.545672 S    
C60   H28   1.110166 S    
C54   C78   1.532453 S    
O24   C111  1.409855 S    
C54   C58   1.532078 S    
C57   C65   1.541685 S    
N37   O10   1.300605 A    
C101  H52   1.109408 S    
C61   C69   1.540252 S    
N33   O2    1.301204 A    
C81   H34   1.087458 S    
C142  H155  1.110505 S    
C14   N38   1.432802 S    
O21   C105  1.411527 S    
C19   N19   1.337672 A    
C85   H38   1.079757 S    
C20   H12   1.070029 S    
N17   Ni2   1.902398 S    
C21   H13   1.079550 S    
C116  H88   1.110300 S    
C128  H118  1.107619 S    
O28   C119  1.408844 S    
C132  H129  1.110287 S    
C93   O38   1.392822 S    
N26   Ni5   1.876103 S    
C138  H145  1.110569 S    
C85   C93   1.345451 D    
C26   C36   1.376105 A    
C83   C91   1.356842 D    
O19   C101  1.411628 S    
C129  C130  1.525366 S    
N38   O12   1.299810 A    
C30   C40   1.389541 A    
N2    Ni2   1.899624 S    
C102  H53   1.110491 S    
C12   N36   1.427883 S    
C6    H6    1.076251 S    
C107  H67   1.114719 S    
C53   O21   1.414945 S    
O18   C99   1.407819 S    
C5    N5    1.313683 A    
C113  H82   1.106236 S    
C18   H10   1.080104 S    
C9    C41   1.374667 A    
N33   O1    1.299183 A    
C134  H135  1.108911 S    
C99   H47   1.113979 S    
C87   H40   1.085725 S    
N10   Ni6   1.876686 S    
C88   H39   1.079041 S    
C17   C41   1.393525 A    
C27   H19   1.077808 S    
C34   C84   1.434039 S    
C29   N29   1.353215 A    
C133  C134  1.526003 S    
C142  H154  1.110636 S    
C38   C88   1.443712 S    
N13   N21   1.358173 A    
C39   C85   1.450756 S    
C82   C90   1.339888 D    
C103  C104  1.518405 S    
C113  C114  1.520141 S    
C112  H80   1.110702 S    
C53   C77   1.524689 S    
C28   H20   1.078347 S    
C99   C100  1.519599 S    
C117  H92   1.107563 S    
O17   C97   1.411081 S    
C42   C67   1.449353 S    
N18   Ni1   1.902400 S    
C116  H89   1.109696 S    
N30   Ni7   1.876103 S    
C141  H151  1.115959 S    
N2    N28   1.384990 A    
C32   H24   1.070263 S    
C20   C44   1.373838 A    
C7    N7    1.317310 A    
C67   C79   1.535472 S    
C8    N8    1.321654 A    
C115  H87   1.112694 S    
C59   C76   1.551334 S    
C117  C118  1.518854 S    
C135  H136  1.105580 S    
C106  H65   1.110630 S    
C79   O31   1.411737 S    
C57   C74   1.544998 S    
C73   O25   1.413665 S    
N3    N25   1.385125 A    
N14   Ni8   1.876686 S    
C9    N9    1.320285 A    
N39   O14   1.295791 A    
C30   N30   1.356194 A    
C115  C116  1.521241 S    
C54   C69   1.531537 S    
O36   C135  1.415298 S    
N20   Ni2   1.891242 S    
C100  H48   1.110518 S    
N19   Ni1   1.891244 S    
C97   H42   1.113837 S    
C101  C102  1.522392 S    
C50   O18   1.407997 S    
C63   H31   1.109519 S    
C102  H55   1.110306 S    
C64   H32   1.107220 S    
C23   N23   1.321540 A    
C45   C72   1.442676 S    
C9    N33   1.421505 S    
C24   N24   1.331094 A    
C2    N2    1.326374 A    
C125  H112  1.112437 S    
C56   O24   1.413376 S    
C6    N6    1.313509 A    
C51   C75   1.534958 S    
C3    C35   1.365628 A    
C119  H96   1.113313 S    
O33   C129  1.413569 S    
C49   C73   1.532933 S    
C126  H114  1.110596 S    
C16   N40   1.440855 S    
C83   H36   1.088390 S    
C97   C98   1.520633 S    
C123  H107  1.108623 S    
N6    N32   1.384990 A    
C52   C67   1.546137 S    
C125  C126  1.521250 S    
C130  H124  1.110325 S    
C127  H116  1.110686 S    
C136  H139  1.110506 S    
C114  H83   1.110607 S    
C55   C72   1.543602 S    
C56   C71   1.541443 S    
C121  H102  1.111658 S    
C122  H104  1.104289 S    
C123  C124  1.524491 S    
C23   C47   1.363726 A    
C28   N28   1.341560 A    
C1    H1    1.074837 S    
C58   C66   1.559545 S    
C129  H121  1.108524 S    
C52   C76   1.527214 S    
N22   Ni3   1.902400 S    
C109  H71   1.110652 S    
C124  H108  1.106320 S    
C62   C70   1.538273 S    
C82   H33   1.088294 S    
C132  H130  1.111294 S    
C121  C122  1.521290 S    
C118  H93   1.110553 S    
C110  H75   1.110789 S    
C86   H37   1.085806 S    
C25   N25   1.351422 A    
C22   H14   1.078690 S    
C107  H66   1.112216 S    
C13   C45   1.372853 A    
N11   Ni6   1.884658 S    
C21   C45   1.362467 A    
C31   N31   1.353310 A    
N15   Ni8   1.884658 S    
C108  H69   1.110519 S    
C105  H61   1.113096 S    
C141  H152  1.111447 S    
C131  C132  1.520423 S    
N15   N23   1.357937 A    
N34   O3    1.298972 A    
C86   C94   1.346844 D    
O40   C143  1.410122 S    
C100  H50   1.107276 S    
C133  H132  1.116089 S    
C59   H27   1.107848 S    
C1    N1    1.298375 A    
C60   C68   1.550714 S    
C92   C95   1.452125 S    
C57   H25   1.109910 S    
C33   C83   1.455835 S    
C139  H147  1.112932 S    
C10   N34   1.437094 S    
C52   O20   1.413449 S    
C141  C142  1.521227 S    
N35   O6    1.300101 A    
C143  H156  1.114193 S    
C17   N17   1.335077 A    
C104  H59   1.105575 S    
C19   H11   1.077183 S    
O31   C125  1.409117 S    
C112  H78   1.107588 S    
C137  H142  1.114877 S    
C20   N20   1.320277 A    
N6    Ni4   1.899624 S    
N7    Ni4   1.887982 S    
C21   N21   1.325712 A    
C91   C96   1.443054 S    
N37   O9    1.297204 A    
C139  C140  1.520937 S    
C61   C78   1.558924 S    
N32   Ni8   1.884131 S    
C51   C68   1.538734 S    
C12   N12   1.322543 A    
C2    C34   1.376591 A    
O30   C123  1.415949 S    
C114  H85   1.109039 S    
C13   N13   1.342836 A    
C144  H159  1.110919 S    
C49   C66   1.551211 S    
C36   C82   1.459815 S    
C4    C36   1.373396 A    
C137  C138  1.516978 S    
C40   C86   1.463501 S    
N5    N31   1.384987 A    
C30   H22   1.073535 S    
O29   C121  1.406743 S    
C8    C40   1.372232 A    
C72   C76   1.533979 S    
C74   O26   1.414198 S    
C101  H51   1.113824 S    
C51   C63   1.552594 S    
C98   H43   1.110947 S    
C66   C78   1.538072 S    
C71   C75   1.540408 S    
C22   C46   1.369051 A    
C131  H127  1.110395 S    
O22   C107  1.411013 S    
C118  H95   1.108564 S    
C138  H144  1.108470 S    
C99   H46   1.112055 S    
C75   O27   1.412988 S    
C77   O29   1.410485 S    
C49   C61   1.558381 S    
C24   C48   1.375621 A    
C27   C33   1.397209 A    
C25   H17   1.077582 S    
C128  H119  1.110669 S    
C58   C73   1.543522 S    
N21   Ni4   1.902398 S    
C53   C57   1.531871 S    
C91   O36   1.393577 S    
C10   N10   1.332623 A    
C98   H45   1.108126 S    
C92   O35   1.388295 S    
N27   Ni5   1.884131 S    
N40   O15   1.299006 A    
O25   C113  1.403061 S    
C89   C94   1.468362 S    
C120  H99   1.110806 S    
C12   C44   1.376180 A    
C134  H134  1.110869 S    
C96   O39   1.395634 S    
C65   C77   1.533143 S    
C32   N32   1.354849 A    
N16   Ni7   1.884658 S    
C55   C79   1.529710 S    
C56   C80   1.529314 S    
C50   C74   1.533569 S    
C110  H74   1.110986 S    
O27   C117  1.402206 S    
N28   Ni6   1.884131 S    
N1    N27   1.384987 A    
C15   C47   1.374162 A    
C128  H120  1.110811 S    
C111  H77   1.111970 S    
N1    Ni1   1.899624 S    
C63   C80   1.553745 S    
C144  H160  1.110937 S    
C64   C79   1.549485 S    
O20   C103  1.409836 S    
O39   C141  1.416529 S    
N5    Ni3   1.899624 S    
C10   C42   1.377345 A    
C103  H56   1.112295 S    
C135  H137  1.109901 S    
C106  H64   1.110685 S    
N7    N29   1.385125 A    
C116  H90   1.109733 S    
C111  C112  1.520381 S    
N9    Ni5   1.876686 S    
C46   C71   1.459842 S    
N23   Ni3   1.891244 S    
C2    H2    1.076493 S    
C47   C70   1.422983 S    
C23   H15   1.077403 S    
O38   C139  1.414514 S    
C124  H110  1.108152 S    
C61   H29   1.109783 S    
C24   H16   1.078579 S    
C1    C33   1.343255 A    
N4    Ni1   1.887982 S    
N12   N20   1.357938 A    
C5    C37   1.365557 A    
N9    N17   1.358173 A    
C135  C136  1.522985 S    
C7    C39   1.367624 A    
O37   C137  1.413277 S    
C84   H35   1.086017 S    
N16   N24   1.357938 A    
N38   O11   1.298749 A    
C102  H54   1.110707 S    
C140  H148  1.110913 S    
C133  H131  1.109466 S    
C144  H158  1.110896 S    
C124  H109  1.110006 S    
N8    N30   1.385121 A    
C76   O28   1.411350 S    
C140  H149  1.110693 S    
C15   N15   1.322915 A    
C119  H97   1.112463 S    
C16   N16   1.337859 A    
C126  H113  1.110773 S    
C113  H81   1.110832 S    
C84   C92   1.336183 D    
C131  H126  1.115109 S    
C52   C64   1.542834 S    
N12   Ni5   1.884658 S    
C132  H128  1.111324 S    
C51   O19   1.410136 S    
O35   C133  1.416901 S    
C106  H63   1.110619 S    
C98   H44   1.110681 S    
N36   O8    1.300234 A    
C58   H26   1.110394 S    
C56   C60   1.535267 S    
N24   Ni4   1.891242 S    
O26   C115  1.411085 S    
