data_mof_unit_2744.cif
_audit_creation_date              2012-12-10T17:05:00-0500
_audit_creation_method            fapswitch 2.2
_symmetry_space_group_name_H-M    P1
_symmetry_Int_Tables_number       1
_space_group_crystal_system       triclinic
_cell_length_a                    30.099264
_cell_length_b                    30.506568
_cell_length_c                    21.123172
_cell_angle_alpha                 89.791479
_cell_angle_beta                  133.614025
_cell_angle_gamma                 90.303874
_cell_volume                      14042.4420745

loop_
_atom_site_label
_atom_site_type_symbol
_atom_type_description
_atom_site_fract_x
_atom_site_fract_y
_atom_site_fract_z
_atom_type_partial_charge
C1    C     C_R   0.308921 0.810045 0.119750 1.080942
C2    C     C_R   0.691162 0.810096 0.880298 1.058913
C3    C     C_R   0.808910 0.309943 0.119923 1.071211
C4    C     C_R   0.190921 0.309941 0.879976 1.085476
C5    C     C_R   0.553056 0.785767 0.015381 -0.046934
C6    C     C_R   0.448434 0.785899 0.989140 -0.067647
C7    C     C_R   0.053269 0.284742 0.014830 -0.056841
C8    C     C_R   0.947549 0.285274 0.985765 -0.052396
C9    C     C_R   0.509918 0.666585 0.971366 0.321738
C10   C     C_R   0.461953 0.665863 0.968662 0.376971
C11   C     C_R   0.024091 0.163958 0.003451 0.388964
C12   C     C_R   0.975080 0.164201 0.998747 0.345587
C13   C     C_R   0.477973 0.825804 0.003446 0.331553
C14   C     C_R   0.528068 0.825925 0.011122 0.307632
C15   C     C_R   0.975736 0.325258 0.996380 0.314849
C16   C     C_R   0.026709 0.325030 0.006124 0.312751
C17   C     C_R   0.269147 0.837611 0.208219 0.300394
C18   C     C_R   0.731728 0.841645 0.794081 0.315587
C19   C     C_R   0.768637 0.338749 0.206906 0.316614
C20   C     C_R   0.224366 0.332451 0.781196 0.285518
C21   C     C_R   0.258524 0.846519 0.262672 0.277303
C22   C     C_R   0.740924 0.850229 0.737778 0.286374
C23   C     C_R   0.758133 0.347013 0.261518 0.263032
C24   C     C_R   0.233381 0.340594 0.724658 0.246801
C25   C     C_R   0.306652 0.861826 0.347572 0.353923
C26   C     C_R   0.691628 0.863693 0.651605 0.349552
C27   C     C_R   0.806245 0.361703 0.347087 0.341162
C28   C     C_R   0.185514 0.357897 0.641727 0.361125
C29   C     C_R   0.362532 0.873835 0.374656 0.360851
C30   C     C_R   0.635107 0.873323 0.624677 0.348463
C31   C     C_R   0.862530 0.373489 0.375147 0.349315
C32   C     C_R   0.131800 0.371978 0.618498 0.350543
C33   C     C_R   0.367656 0.875550 0.312256 -0.229098
C34   C     C_R   0.631512 0.876014 0.688235 -0.233458
C35   C     C_R   0.868488 0.374747 0.313675 -0.239529
C36   C     C_R   0.128996 0.374070 0.683304 -0.242485
C37   C     C_R   0.325049 0.851601 0.234458 -0.126679
C38   C     C_R   0.674991 0.853163 0.766798 -0.124364
C39   C     C_R   0.825519 0.351419 0.234978 -0.116705
C40   C     C_R   0.171660 0.349543 0.760475 -0.110499
C41   C     C_R   0.339886 0.843301 0.185036 -0.204687
C42   C     C_R   0.659760 0.843519 0.815330 -0.197037
C43   C     C_R   0.840923 0.342571 0.186395 -0.197614
C44   C     C_R   0.158956 0.342414 0.813036 -0.211058
C45   C     C_R   0.334191 0.748550 0.994917 0.894599
C46   C     C_R   0.665023 0.748889 0.003753 1.027867
C47   C     C_R   0.834740 0.248899 0.995869 1.024335
C48   C     C_R   0.165443 0.248510 0.004557 0.966499
C49   C     C_R   0.388222 0.864735 0.201835 0.308460
C50   C     C_R   0.610233 0.863610 0.796850 0.306338
C51   C     C_R   0.892895 0.360751 0.208894 0.292053
C52   C     C_R   0.109154 0.362126 0.794108 0.299104
C53   C     C_R   0.419289 0.897653 0.263654 0.417706
C54   C     C_R   0.579482 0.896883 0.735766 0.425006
C55   C     C_R   0.924346 0.393650 0.270616 0.427050
C56   C     C_R   0.077686 0.394954 0.732325 0.419482
C57   C     C_R   0.411320 0.901982 0.321899 -0.256483
C58   C     C_R   0.587912 0.901995 0.678211 -0.266767
C59   C     C_R   0.913162 0.400496 0.324739 -0.254415
C60   C     C_R   0.086775 0.400852 0.675651 -0.256074
C61   C     C_R   0.871723 0.737448 0.924839 0.446131
C62   C     C_R   0.123123 0.729759 0.066184 0.437965
C63   C     C_R   0.376934 0.227852 0.935742 0.443194
C64   C     C_R   0.626562 0.231071 0.071878 0.459724
C65   C     C_R   0.886215 0.746077 0.002669 -0.333154
C66   C     C_R   0.111305 0.744222 0.992490 -0.337091
C67   C     C_R   0.389660 0.241593 0.010395 -0.386142
C68   C     C_R   0.613105 0.245020 0.996524 -0.329809
C69   C     C_R   0.947291 0.752013 0.081561 0.401249
C70   C     C_R   0.052364 0.758729 0.917493 0.388153
C71   C     C_R   0.450669 0.250734 0.088637 0.424642
C72   C     C_R   0.553145 0.257534 0.921412 0.398070
C73   C     C_R   0.993867 0.751958 0.081093 -0.059428
C74   C     C_R   0.004893 0.756844 0.916003 -0.054191
C75   C     C_R   0.496911 0.250060 0.087608 -0.007670
C76   C     C_R   0.506355 0.252393 0.920862 -0.056685
C77   C     C_R   0.976543 0.750982 0.999311 -0.172050
C78   C     C_R   0.021357 0.750655 0.996470 -0.173651
C79   C     C_R   0.479420 0.246710 0.005890 -0.193299
C80   C     C_R   0.523861 0.248000 0.002354 -0.184886
C81   C     C_R   0.914462 0.748072 0.920312 -0.104934
C82   C     C_R   0.082434 0.741655 0.073847 -0.101383
C83   C     C_R   0.417956 0.238986 0.928205 -0.102350
C84   C     C_R   0.585701 0.241661 0.079955 -0.103582
C85   C     C_R   0.056725 0.754246 0.158945 0.310499
C86   C     C_R   0.942353 0.761469 0.837749 0.304536
C87   C     C_R   0.559866 0.252277 0.165524 0.332189
C88   C     C_R   0.443622 0.250545 0.842333 0.314044
C89   C     C_R   0.189670 0.690227 0.879423 0.967166
C90   C     C_R   0.809199 0.690148 0.119930 1.088304
C91   C     C_R   0.691270 0.190045 0.880091 1.083265
C92   C     C_R   0.308910 0.189983 0.119939 1.049345
C93   C     C_R   0.100835 0.743572 0.155889 0.393900
C94   C     C_R   0.896637 0.753609 0.838997 0.390329
C95   C     C_R   0.604222 0.243189 0.162179 0.371163
C96   C     C_R   0.399627 0.240154 0.846005 0.390236
C97   C     C_R   0.175971 0.689184 0.725109 0.297828
C98   C     C_R   0.774889 0.662686 0.215247 0.311364
C99   C     C_R   0.723077 0.164330 0.780839 0.290825
C100  C     C_R   0.273784 0.160434 0.213492 0.274697
C101  C     C_R   0.200349 0.678631 0.688948 0.178282
C102  C     C_R   0.747791 0.640748 0.241095 0.190836
C103  C     C_R   0.749578 0.143630 0.753335 0.181198
C104  C     C_R   0.244731 0.137750 0.235744 0.219590
C105  C     C_R   0.207406 0.634343 0.679393 0.369885
C106  C     C_R   0.760508 0.595926 0.263627 0.374720
C107  C     C_R   0.738164 0.098468 0.731579 0.361925
C108  C     C_R   0.257490 0.092453 0.258003 0.358362
C109  C     C_R   0.180245 0.601665 0.690363 0.402384
C110  C     C_R   0.804025 0.575140 0.268376 0.417226
C111  C     C_R   0.696621 0.076278 0.730201 0.434555
C112  C     C_R   0.302152 0.072469 0.263960 0.432626
C113  C     C_R   0.146587 0.613546 0.712634 -0.250512
C114  C     C_R   0.841054 0.600056 0.262263 -0.241098
C115  C     C_R   0.659978 0.099882 0.738101 -0.236232
C116  C     C_R   0.339410 0.097897 0.258964 -0.240427
C117  C     C_R   0.158317 0.654735 0.749505 -0.153725
C118  C     C_R   0.818601 0.640530 0.220082 -0.151401
C119  C     C_R   0.681363 0.140789 0.779021 -0.148673
C120  C     C_R   0.317455 0.138714 0.218076 -0.147569
C121  C     C_R   0.153767 0.658286 0.811406 -0.099201
C122  C     C_R   0.842117 0.657539 0.186084 -0.116336
C123  C     C_R   0.658684 0.156858 0.814665 -0.115413
C124  C     C_R   0.341542 0.156659 0.185308 -0.103923
C125  C     C_R   0.122423 0.626844 0.816776 0.326551
C126  C     C_R   0.893546 0.639860 0.206893 0.299234
C127  C     C_R   0.610379 0.136426 0.799345 0.298998
C128  C     C_R   0.391124 0.137664 0.202633 0.290719
C129  C     C_R   0.088282 0.594923 0.751435 0.344424
C130  C     C_R   0.927296 0.608123 0.272285 0.367050
C131  C     C_R   0.576695 0.104240 0.734814 0.357483
C132  C     C_R   0.424676 0.105368 0.266962 0.366260
C133  C     C_R   0.161337 0.747326 0.996203 1.032832
C134  C     C_R   0.837737 0.748285 0.001855 1.056767
C135  C     C_R   0.661950 0.247914 0.997691 1.050863
C136  C     C_R   0.339002 0.246776 0.004859 0.985935
C137  C     C_R   0.101358 0.587371 0.699726 -0.209414
C138  C     C_R   0.900587 0.587318 0.299515 -0.229087
C139  C     C_R   0.601453 0.085586 0.703411 -0.220915
C140  C     C_R   0.398963 0.085290 0.296209 -0.220534
C141  C     C_R   0.937629 0.557533 0.374358 0.908885
C142  C     C_R   0.062844 0.557460 0.625598 0.909970
C143  C     C_R   0.437106 0.056809 0.373269 0.914341
C144  C     C_R   0.563016 0.056888 0.626651 0.914367
C145  C     C_R   0.441917 0.938037 0.383432 0.895069
C146  C     C_R   0.557975 0.938138 0.616829 0.892250
C147  C     C_R   0.942214 0.437753 0.383897 0.890078
C148  C     C_R   0.057789 0.437937 0.616391 0.886764
C149  C     C_R   0.606074 0.785254 0.030298 0.396564
C150  C     C_R   0.395024 0.785622 0.972898 0.446396
C151  C     C_R   0.107222 0.284047 0.032334 0.432229
C152  C     C_R   0.894165 0.285133 0.969790 0.399080
C153  C     C_R   0.620854 0.747006 0.011659 -0.289245
C154  C     C_R   0.376153 0.746346 0.982977 -0.367764
C155  C     C_R   0.122950 0.245558 0.015709 -0.348681
C156  C     C_R   0.877790 0.246717 0.985982 -0.293841
C157  C     C_R   0.594023 0.706764 0.001248 0.352715
C158  C     C_R   0.396621 0.705733 0.979713 0.379864
C159  C     C_R   0.097226 0.204910 0.008532 0.366740
C160  C     C_R   0.901817 0.206169 0.991601 0.345933
C161  C     C_R   0.543614 0.705649 0.993535 -0.127844
C162  C     C_R   0.443402 0.705304 0.979645 -0.045876
C163  C     C_R   0.049278 0.204079 0.006173 -0.054185
C164  C     C_R   0.949206 0.204490 0.992757 -0.092564
C165  C     C_R   0.523199 0.745543 0.000521 -0.132000
C166  C     C_R   0.471984 0.745518 0.990361 -0.175534
C167  C     C_R   0.025289 0.244438 0.004633 -0.167927
C168  C     C_R   0.973908 0.244656 0.994025 -0.144556
O1    O     O_R   0.321630 0.769940 0.143350 -0.639771
O2    O     O_R   0.678370 0.769940 0.856650 -0.652298
O3    O     O_R   0.821630 0.269940 0.143350 -0.654289
O4    O     O_R   0.178370 0.269940 0.856650 -0.639092
O5    O     O_R   0.916920 0.545810 0.408440 -0.573616
O6    O     O_R   0.083080 0.545810 0.591560 -0.582906
O7    O     O_R   0.416920 0.045810 0.408440 -0.576820
O8    O     O_R   0.583080 0.045810 0.591560 -0.577321
O9    O     O_R   0.491480 0.954180 0.408380 -0.585533
O10   O     O_R   0.508520 0.954180 0.591620 -0.570162
O11   O     O_R   0.991480 0.454180 0.408380 -0.571002
O12   O     O_R   0.008520 0.454180 0.591620 -0.571123
O13   O     O_R   0.416890 0.954190 0.408420 -0.560394
O14   O     O_R   0.583110 0.954190 0.591580 -0.594324
O15   O     O_R   0.916890 0.454190 0.408420 -0.565098
O16   O     O_R   0.083110 0.454190 0.591580 -0.592121
O17   O     O_R   0.269950 0.821660 0.039930 -0.594334
O18   O     O_R   0.730050 0.821660 0.960070 -0.596766
O19   O     O_R   0.769950 0.321660 0.039930 -0.600267
O20   O     O_R   0.230050 0.321660 0.960070 -0.600087
O21   O     O_R   0.341900 0.724110 0.051720 -0.627680
O22   O     O_R   0.658100 0.724110 0.948280 -0.608603
O23   O     O_R   0.841900 0.224110 0.051720 -0.609548
O24   O     O_R   0.158100 0.224110 0.948280 -0.641788
O25   O     O_R   0.290220 0.775830 0.948290 -0.600345
O26   O     O_R   0.709780 0.775830 0.051710 -0.608885
O27   O     O_R   0.790220 0.275830 0.948290 -0.607771
O28   O     O_R   0.209780 0.275830 0.051710 -0.585176
O29   O     O_R   0.230030 0.678320 0.960120 -0.629871
O30   O     O_R   0.769970 0.678320 0.039880 -0.644410
O31   O     O_R   0.730030 0.178320 0.960120 -0.642223
O32   O     O_R   0.269970 0.178320 0.039880 -0.652500
O33   O     O_R   0.178350 0.730040 0.856700 -0.556617
O34   O     O_R   0.821650 0.730040 0.143300 -0.590548
O35   O     O_R   0.678350 0.230040 0.856700 -0.590881
O36   O     O_R   0.321650 0.230040 0.143300 -0.603319
O37   O     O_R   0.209770 0.724150 0.051760 -0.599476
O38   O     O_R   0.790230 0.724150 0.948240 -0.621309
O39   O     O_R   0.709770 0.224150 0.051760 -0.611757
O40   O     O_R   0.290230 0.224150 0.948240 -0.587090
O41   O     O_R   0.158090 0.775870 0.948330 -0.570367
O42   O     O_R   0.841910 0.775870 0.051670 -0.562810
O43   O     O_R   0.658090 0.275870 0.948330 -0.567675
O44   O     O_R   0.341910 0.275870 0.051670 -0.598781
O45   O     O_R   0.991500 0.545800 0.408400 -0.617061
O46   O     O_R   0.008500 0.545800 0.591600 -0.628112
O47   O     O_R   0.491500 0.045800 0.408400 -0.622652
O48   O     O_R   0.508500 0.045800 0.591600 -0.620327
Zn1   Zn    Zn3+2 0.284500 0.715460 0.069080 0.986945
Zn2   Zn    Zn3+2 0.715500 0.715460 0.930920 0.986979
Zn3   Zn    Zn3+2 0.784500 0.215460 0.069080 0.989713
Zn4   Zn    Zn3+2 0.215500 0.215460 0.930920 0.974163
Zn5   Zn    Zn3+2 0.215490 0.784530 0.930970 1.046873
Zn6   Zn    Zn3+2 0.784510 0.784530 0.069030 1.044188
Zn7   Zn    Zn3+2 0.715490 0.284530 0.930970 1.031794
Zn8   Zn    Zn3+2 0.284510 0.284530 0.069030 1.020887
Zn9   Zn    Zn3+2 0.549790 0.999990 0.499990 0.993730
Zn10  Zn    Zn3+2 0.450210 0.999990 0.500010 1.058970
Zn11  Zn    Zn3+2 0.049790 0.499990 0.499990 1.033181
Zn12  Zn    Zn3+2 0.950210 0.499990 0.500010 1.051846
O49   O     O_3   0.641675 0.822831 0.058652 -0.559786
C169  C     C_3   0.691250 0.821513 0.151030 0.190391
H1    H     H_    0.730280 0.839627 0.167643 0.159640
H2    H     H_    0.708060 0.787664 0.177078 0.111313
C170  C     C_3   0.674768 0.843850 0.197458 -0.357125
H3    H     H_    0.658984 0.877835 0.172470 0.265537
H4    H     H_    0.637348 0.825393 0.184615 0.219547
C171  C     C_3   0.729802 0.845514 0.296140 -0.979698
H5    H     H_    0.745954 0.811823 0.322917 0.274442
H6    H     H_    0.716305 0.861590 0.327833 0.271728
H7    H     H_    0.767862 0.864620 0.311756 0.269624
O50   O     O_3   0.362144 0.823995 0.949383 -0.550010
C172  C     C_3   0.313071 0.825621 0.856850 0.185777
H8    H     H_    0.277152 0.847233 0.841671 0.162169
H9    H     H_    0.290789 0.793031 0.827499 0.108530
C173  C     C_3   0.333560 0.844874 0.813098 -0.376009
H10   H     H_    0.354526 0.877706 0.841172 0.264415
H11   H     H_    0.368092 0.823171 0.824764 0.211349
C174  C     C_3   0.279542 0.849272 0.714490 -0.975406
H12   H     H_    0.258680 0.816629 0.684759 0.270726
H13   H     H_    0.295821 0.863243 0.684835 0.278505
H14   H     H_    0.244228 0.871403 0.699839 0.270414
O51   O     O_3   0.142406 0.321809 0.060268 -0.557279
C175  C     C_3   0.191317 0.320973 0.152783 0.183023
H15   H     H_    0.229076 0.341497 0.170324 0.158911
H16   H     H_    0.210760 0.287555 0.178793 0.117691
C176  C     C_3   0.172119 0.340087 0.198022 -0.361638
H17   H     H_    0.154055 0.373769 0.173305 0.264470
H18   H     H_    0.135623 0.319425 0.183768 0.213719
C177  C     C_3   0.226157 0.341838 0.297009 -0.979889
H19   H     H_    0.244385 0.308365 0.323414 0.269469
H20   H     H_    0.210760 0.355587 0.327799 0.278010
H21   H     H_    0.263267 0.363048 0.314137 0.269242
O52   O     O_3   0.860471 0.323259 0.944336 -0.560234
C178  C     C_3   0.811221 0.323723 0.851878 0.183007
H22   H     H_    0.773937 0.343806 0.836025 0.158556
H23   H     H_    0.791162 0.290562 0.823809 0.115557
C179  C     C_3   0.830315 0.344516 0.807348 -0.356549
H24   H     H_    0.849143 0.377889 0.834264 0.264215
H25   H     H_    0.866202 0.324279 0.819736 0.214467
C180  C     C_3   0.775955 0.347826 0.708643 -0.981708
H26   H     H_    0.756929 0.314711 0.680050 0.269940
H27   H     H_    0.791283 0.362760 0.678333 0.277744
H28   H     H_    0.739464 0.368685 0.693444 0.269465
O53   O     O_3   0.460205 0.923455 0.269761 -0.629750
C181  C     C_3   0.432990 0.964224 0.227293 0.130127
H29   H     H_    0.470057 0.989349 0.263858 0.197546
H30   H     H_    0.398180 0.975432 0.228084 0.077360
C182  C     C_3   0.404552 0.962804 0.133147 -0.323859
H31   H     H_    0.439258 0.951152 0.132682 0.242580
H32   H     H_    0.365071 0.939675 0.094171 0.250579
C183  C     C_3   0.381970 0.008073 0.090784 -0.966672
H33   H     H_    0.346657 0.020077 0.089702 0.262189
H34   H     H_    0.361307 0.006130 0.022514 0.274016
H35   H     H_    0.420787 0.031777 0.127511 0.276886
O54   O     O_3   0.538404 0.922075 0.729550 -0.602874
C184  C     C_3   0.566106 0.962618 0.773356 0.136949
H36   H     H_    0.529536 0.987906 0.736943 0.198982
H37   H     H_    0.601779 0.974082 0.774102 0.073548
C185  C     C_3   0.593469 0.960355 0.866917 -0.321659
H38   H     H_    0.557979 0.948525 0.865891 0.248310
H39   H     H_    0.632400 0.936962 0.905753 0.247393
C186  C     C_3   0.616695 0.005277 0.910887 -0.963128
H40   H     H_    0.652751 0.017476 0.913421 0.262672
H41   H     H_    0.636606 0.002682 0.978708 0.273716
H42   H     H_    0.578371 0.029179 0.874398 0.276890
O55   O     O_3   0.968880 0.416682 0.281028 -0.596799
C187  C     C_3   0.944005 0.456363 0.232770 0.136232
H43   H     H_    0.981803 0.480907 0.268649 0.190964
H44   H     H_    0.907678 0.470466 0.227956 0.077666
C188  C     C_3   0.919303 0.450476 0.141145 -0.319537
H45   H     H_    0.954980 0.434986 0.146152 0.253600
H46   H     H_    0.878204 0.428860 0.101713 0.249918
C189  C     C_3   0.901069 0.494429 0.094172 -0.965441
H47   H     H_    0.864905 0.510201 0.087702 0.263607
H48   H     H_    0.882858 0.489163 0.027785 0.276620
H49   H     H_    0.941517 0.516617 0.130893 0.273215
O56   O     O_3   0.034227 0.418371 0.723268 -0.608111
C190  C     C_3   0.060248 0.458012 0.771447 0.145160
H50   H     H_    0.022826 0.482607 0.735963 0.206303
H51   H     H_    0.096556 0.471872 0.775444 0.094676
C191  C     C_3   0.085407 0.452229 0.863430 -0.317932
H52   H     H_    0.050200 0.436041 0.859097 0.251493
H53   H     H_    0.126863 0.431200 0.902963 0.247485
C192  C     C_3   0.102881 0.496275 0.909715 -0.948532
H54   H     H_    0.137775 0.513205 0.914267 0.271975
H55   H     H_    0.122369 0.490949 0.976842 0.271772
H56   H     H_    0.061769 0.517434 0.873679 0.272173
O57   O     O_3   0.818151 0.715873 0.855172 -0.588965
C193  C     C_3   0.824254 0.670096 0.873474 0.107122
H57   H     H_    0.778653 0.654808 0.820226 0.163310
H58   H     H_    0.835946 0.663381 0.935340 0.158981
C194  C     C_3   0.871832 0.647176 0.877666 -0.439204
H59   H     H_    0.863131 0.654577 0.818573 0.213057
H60   H     H_    0.918817 0.658688 0.935818 0.217999
C195  C     C_3   0.869934 0.597561 0.885064 -0.926884
H61   H     H_    0.879776 0.588994 0.944880 0.267752
H62   H     H_    0.905144 0.582035 0.889156 0.268300
H63   H     H_    0.824135 0.584405 0.826752 0.262899
O58   O     O_3   0.172671 0.703197 0.129453 -0.593306
C196  C     C_3   0.161491 0.660014 0.095685 0.115981
H64   H     H_    0.204905 0.641360 0.143328 0.163524
H65   H     H_    0.149957 0.659811 0.033026 0.181542
C197  C     C_3   0.110854 0.635582 0.082992 -0.434689
H66   H     H_    0.122638 0.634091 0.145569 0.212850
H67   H     H_    0.066344 0.652842 0.034112 0.220841
C198  C     C_3   0.102514 0.588933 0.050260 -0.924226
H68   H     H_    0.088596 0.589482 0.985995 0.265014
H69   H     H_    0.066077 0.572038 0.042145 0.266709
H70   H     H_    0.145865 0.570206 0.097888 0.265006
O59   O     O_3   0.326746 0.201573 0.872332 -0.600253
C199  C     C_3   0.336686 0.158362 0.905704 0.114088
H71   H     H_    0.293313 0.139695 0.856447 0.159227
H72   H     H_    0.346149 0.158172 0.966783 0.172347
C200  C     C_3   0.388564 0.133890 0.922129 -0.433532
H73   H     H_    0.379657 0.133120 0.861740 0.213513
H74   H     H_    0.433207 0.150657 0.974032 0.220092
C201  C     C_3   0.394234 0.086906 0.951969 -0.929690
H75   H     H_    0.404788 0.086795 0.013797 0.269069
H76   H     H_    0.432007 0.070105 0.963704 0.267867
H77   H     H_    0.350879 0.068546 0.901040 0.263493
O60   O     O_3   0.676885 0.205076 0.135090 -0.591903
C202  C     C_3   0.665826 0.161460 0.102942 0.106183
H78   H     H_    0.709291 0.142985 0.151521 0.161845
H79   H     H_    0.654506 0.160383 0.040473 0.169951
C203  C     C_3   0.614949 0.137396 0.090258 -0.436767
H80   H     H_    0.624954 0.137958 0.151495 0.212610
H81   H     H_    0.570015 0.153543 0.038064 0.221379
C204  C     C_3   0.609119 0.089779 0.063351 -0.925265
H82   H     H_    0.597752 0.088213 0.000950 0.268858
H83   H     H_    0.571856 0.073358 0.053848 0.266638
H84   H     H_    0.652694 0.071984 0.114931 0.262795
O61   O     O_3   0.960273 0.752894 0.158160 -0.676038
H85   H     H_    0.988407 0.728086 0.194230 0.363139
O62   O     O_3   0.041658 0.771829 0.845507 -0.678905
H86   H     H_    0.023867 0.801654 0.830462 0.364044
O63   O     O_3   0.466342 0.257175 0.166750 -0.671344
H87   H     H_    0.438627 0.239440 0.166612 0.349860
O64   O     O_3   0.541088 0.271707 0.848798 -0.684558
H88   H     H_    0.514743 0.298014 0.826524 0.362245
O65   O     O_3   0.073974 0.767166 0.236043 -0.751517
H89   H     H_    0.117762 0.775893 0.278949 0.358270
O66   O     O_3   0.926625 0.771850 0.760718 -0.753766
H90   H     H_    0.886437 0.786807 0.721141 0.350683
O67   O     O_3   0.577072 0.261797 0.243874 -0.709845
H91   H     H_    0.620130 0.272195 0.286540 0.343546
O68   O     O_3   0.426631 0.255643 0.763019 -0.768573
H92   H     H_    0.383188 0.264782 0.718234 0.344552
O69   O     O_3   0.162810 0.742548 0.231907 -0.580571
C205  C     C_3   0.176247 0.705281 0.282804 0.104691
H93   H     H_    0.189344 0.677841 0.264262 0.175226
H94   H     H_    0.137278 0.694209 0.274985 0.119893
C206  C     C_3   0.230966 0.715757 0.379130 -0.326911
H95   H     H_    0.270713 0.725687 0.388402 0.231186
H96   H     H_    0.219022 0.743402 0.399052 0.227210
C207  C     C_3   0.249144 0.676328 0.437371 -0.988141
H97   H     H_    0.210910 0.666795 0.431833 0.274373
H98   H     H_    0.289813 0.684937 0.506449 0.264361
H99   H     H_    0.261125 0.648094 0.418543 0.269836
O70   O     O_3   0.834975 0.759889 0.764197 -0.562423
C208  C     C_3   0.811960 0.726495 0.701557 0.093319
H100  H     H_    0.790469 0.700582 0.710052 0.175825
H101  H     H_    0.847601 0.710957 0.706248 0.135518
C209  C     C_3   0.761801 0.745766 0.609948 -0.276796
H102  H     H_    0.724794 0.759563 0.603685 0.257702
H103  H     H_    0.781074 0.772780 0.599548 0.230407
C210  C     C_3   0.734379 0.711037 0.539409 -0.971500
H104  H     H_    0.770399 0.697410 0.543376 0.275209
H105  H     H_    0.698102 0.726040 0.473881 0.275533
H106  H     H_    0.713589 0.684050 0.547278 0.263056
O71   O     O_3   0.666242 0.242529 0.238381 -0.578765
C211  C     C_3   0.680811 0.204048 0.287406 0.109134
H107  H     H_    0.698338 0.179052 0.271318 0.181563
H108  H     H_    0.641182 0.189596 0.274885 0.120896
C212  C     C_3   0.732005 0.214251 0.384944 -0.339488
H109  H     H_    0.771916 0.228437 0.398491 0.232425
H110  H     H_    0.715566 0.238588 0.403776 0.224783
C213  C     C_3   0.752726 0.173090 0.440521 -0.981843
H111  H     H_    0.713576 0.157889 0.427721 0.271948
H112  H     H_    0.788835 0.181834 0.510905 0.271303
H113  H     H_    0.771927 0.148935 0.425603 0.266321
O72   O     O_3   0.337669 0.238277 0.769737 -0.589682
C214  C     C_3   0.323746 0.199288 0.722552 0.114408
H114  H     H_    0.307390 0.174144 0.740564 0.181493
H115  H     H_    0.363430 0.185465 0.734947 0.127991
C215  C     C_3   0.271600 0.208334 0.624676 -0.337157
H116  H     H_    0.232053 0.222644 0.611608 0.237092
H117  H     H_    0.287175 0.232311 0.603689 0.223016
C216  C     C_3   0.250562 0.166494 0.570897 -0.984440
H118  H     H_    0.289409 0.151193 0.583458 0.272570
H119  H     H_    0.213932 0.174447 0.500211 0.269352
H120  H     H_    0.231947 0.142736 0.587710 0.267791
O73   O     O_3   0.124000 0.629318 0.883646 -0.806465
H121  H     H_    0.109687 0.601048 0.887587 0.351852
O74   O     O_3   0.911058 0.655838 0.165360 -0.811747
H122  H     H_    0.942348 0.636242 0.177553 0.358522
O75   O     O_3   0.595688 0.150015 0.845475 -0.802203
H123  H     H_    0.568535 0.127878 0.838917 0.357034
O76   O     O_3   0.406880 0.152538 0.158298 -0.838199
H124  H     H_    0.435064 0.131262 0.166020 0.359512
O77   O     O_3   0.161102 0.731833 0.725356 -0.734121
H125  H     H_    0.152118 0.748334 0.677162 0.339908
O78   O     O_3   0.764775 0.706699 0.195107 -0.781136
H126  H     H_    0.763495 0.721448 0.235508 0.332940
O79   O     O_3   0.731928 0.208470 0.800075 -0.786023
H127  H     H_    0.732269 0.223779 0.758988 0.336636
O80   O     O_3   0.265268 0.204843 0.196686 -0.797583
H128  H     H_    0.262324 0.218712 0.235994 0.337863
O81   O     O_3   0.219682 0.710398 0.665713 -0.773263
H129  H     H_    0.233618 0.736391 0.703481 0.326947
O82   O     O_3   0.708865 0.661958 0.244120 -0.783783
H130  H     H_    0.687489 0.685806 0.200209 0.337745
O83   O     O_3   0.785885 0.166833 0.747034 -0.788978
H131  H     H_    0.808423 0.189947 0.792505 0.337706
O84   O     O_3   0.205338 0.159553 0.237068 -0.790623
H132  H     H_    0.183609 0.182642 0.191581 0.353556
O85   O     O_3   0.238162 0.621938 0.655013 -0.615484
C217  C     C_3   0.299684 0.637478 0.715427 0.193789
H133  H     H_    0.330387 0.608521 0.744403 0.123186
H134  H     H_    0.313250 0.655830 0.772310 0.168478
C218  C     C_3   0.311138 0.665217 0.666872 -0.312127
H135  H     H_    0.331539 0.644251 0.649545 0.179261
H136  H     H_    0.266985 0.678041 0.604830 0.276292
C219  C     C_3   0.353574 0.704276 0.720832 -0.940302
H137  H     H_    0.331695 0.727867 0.732128 0.291051
H138  H     H_    0.363057 0.721332 0.684722 0.266772
H139  H     H_    0.397627 0.693549 0.784996 0.243228
O86   O     O_3   0.738020 0.572299 0.292983 -0.602777
C220  C     C_3   0.673362 0.573715 0.234919 0.161277
H140  H     H_    0.655425 0.539836 0.211262 0.123363
H141  H     H_    0.649799 0.593992 0.175140 0.145309
C221  C     C_3   0.657267 0.589240 0.285940 -0.259965
H142  H     H_    0.672255 0.564132 0.335613 0.207427
H143  H     H_    0.682104 0.620206 0.321036 0.270751
C222  C     C_3   0.588766 0.597019 0.226246 -1.012877
H144  H     H_    0.573846 0.623773 0.179342 0.266802
H145  H     H_    0.578784 0.606899 0.265897 0.275754
H146  H     H_    0.562913 0.566503 0.190302 0.261178
O87   O     O_3   0.758620 0.075363 0.698918 -0.620131
C223  C     C_3   0.820694 0.082916 0.743565 0.144724
H147  H     H_    0.843883 0.050576 0.764258 0.114886
H148  H     H_    0.847270 0.102153 0.805097 0.177328
C224  C     C_3   0.823050 0.103491 0.679501 -0.259144
H149  H     H_    0.806145 0.079220 0.627769 0.200391
H150  H     H_    0.792312 0.132376 0.646672 0.271115
C225  C     C_3   0.887715 0.117749 0.724842 -0.998021
H151  H     H_    0.905563 0.142110 0.776824 0.273697
H152  H     H_    0.886998 0.133151 0.676434 0.270694
H153  H     H_    0.918362 0.088834 0.753440 0.257002
O88   O     O_3   0.234489 0.066060 0.284400 -0.622885
C226  C     C_3   0.175982 0.077056 0.250572 0.151105
H154  H     H_    0.150351 0.045933 0.233068 0.118244
H155  H     H_    0.147115 0.095599 0.188107 0.199930
C227  C     C_3   0.183279 0.099301 0.322495 -0.259781
H156  H     H_    0.198675 0.074578 0.372951 0.199437
H157  H     H_    0.219249 0.125137 0.355743 0.265481
C228  C     C_3   0.123569 0.119714 0.286546 -0.974373
H158  H     H_    0.106646 0.144096 0.234895 0.282682
H159  H     H_    0.131498 0.136647 0.340068 0.265983
H160  H     H_    0.088478 0.093822 0.259522 0.253486
O89   O     O_3   0.194226 0.558600 0.689476 -0.559997
C229  C     C_3   0.230209 0.539831 0.773623 0.141447
H161  H     H_    0.199867 0.525405 0.780811 0.131858
H162  H     H_    0.261298 0.564260 0.827110 0.077125
C230  C     C_3   0.270860 0.503989 0.785736 -0.410951
H163  H     H_    0.299135 0.518096 0.774616 0.227505
H164  H     H_    0.302357 0.491587 0.854005 0.175631
C231  C     C_3   0.233231 0.465656 0.723355 -0.698174
H165  H     H_    0.208296 0.449344 0.738268 0.229720
H166  H     H_    0.264290 0.441515 0.731512 0.219871
H167  H     H_    0.199901 0.476992 0.654356 0.300580
O90   O     O_3   0.806529 0.529782 0.273931 -0.578159
C232  C     C_3   0.789797 0.511830 0.198230 0.097562
H168  H     H_    0.831677 0.507820 0.210112 0.128302
H169  H     H_    0.756379 0.532659 0.138773 0.112935
C233  C     C_3   0.759714 0.467136 0.179300 -0.345030
H170  H     H_    0.790442 0.446208 0.238393 0.239544
H171  H     H_    0.716120 0.471473 0.163001 0.210458
C234  C     C_3   0.746125 0.444452 0.103174 -0.946554
H172  H     H_    0.716065 0.465280 0.043670 0.262527
H173  H     H_    0.722160 0.412899 0.088649 0.289214
H174  H     H_    0.789506 0.437787 0.120017 0.261905
O91   O     O_3   0.691766 0.031172 0.718933 -0.583557
C235  C     C_3   0.719434 0.009735 0.798256 0.076397
H175  H     H_    0.693848 0.978656 0.781358 0.156651
H176  H     H_    0.716828 0.028591 0.840814 0.116695
C236  C     C_3   0.786220 0.998621 0.848259 -0.365279
H177  H     H_    0.787897 0.979918 0.804869 0.224394
H178  H     H_    0.813017 0.029389 0.868289 0.207639
C237  C     C_3   0.815594 0.971326 0.929555 -0.966272
H179  H     H_    0.815700 0.989821 0.974861 0.272743
H180  H     H_    0.863750 0.963701 0.963881 0.265839
H181  H     H_    0.790096 0.940019 0.911048 0.275446
O92   O     O_3   0.309678 0.027521 0.277286 -0.572453
C238  C     C_3   0.284853 0.005705 0.199687 0.085464
H182  H     H_    0.314459 0.976998 0.218980 0.152251
H183  H     H_    0.284320 0.025945 0.154999 0.108776
C239  C     C_3   0.220267 0.988929 0.151558 -0.340667
H184  H     H_    0.221817 0.968964 0.197144 0.243716
H185  H     H_    0.189229 0.017172 0.129034 0.212376
C240  C     C_3   0.194709 0.960820 0.072912 -0.971752
H186  H     H_    0.192308 0.980196 0.026005 0.271817
H187  H     H_    0.147752 0.949467 0.039189 0.261725
H188  H     H_    0.224188 0.931644 0.094413 0.278776
O93   O     O_3   0.619754 0.669168 0.002260 -0.724786
H189  H     H_    0.627544 0.649265 0.046219 0.353476
O94   O     O_3   0.371284 0.666596 0.975565 -0.739034
H190  H     H_    0.328590 0.671619 0.947803 0.321566
O95   O     O_3   0.118219 0.165988 0.003926 -0.731834
H191  H     H_    0.162081 0.169093 0.035792 0.348515
O96   O     O_3   0.878375 0.168854 0.996352 -0.729557
H192  H     H_    0.853784 0.154135 0.938962 0.352195
O97   O     O_3   0.046378 0.569214 0.743152 -0.678868
C241  C     C_3   0.989318 0.591352 0.692040 0.136898
H193  H     H_    0.983165 0.618390 0.650710 0.132786
H194  H     H_    0.952655 0.566921 0.646024 0.175590
C242  C     C_3   0.979490 0.608997 0.749524 -0.382845
H195  H     H_    0.990129 0.582985 0.795225 0.222269
H196  H     H_    0.010329 0.637391 0.788201 0.263797
C243  C     C_3   0.913554 0.624266 0.694594 -0.928984
H197  H     H_    0.902070 0.650751 0.649120 0.277771
H198  H     H_    0.908339 0.637209 0.738250 0.259051
H199  H     H_    0.881040 0.596488 0.656379 0.261389
O98   O     O_3   0.984837 0.596629 0.306364 -0.649752
C244  C     C_3   0.030763 0.622932 0.380569 0.149052
H200  H     H_    0.016940 0.636540 0.413908 0.109332
H201  H     H_    0.070914 0.601479 0.429271 0.192280
C245  C     C_3   0.051235 0.660190 0.356591 -0.429978
H202  H     H_    0.060896 0.646943 0.318167 0.230231
H203  H     H_    0.014032 0.684792 0.316245 0.258125
C246  C     C_3   0.108821 0.682977 0.438123 -0.850862
H204  H     H_    0.100111 0.696923 0.477218 0.280768
H205  H     H_    0.122115 0.710001 0.418524 0.275625
H206  H     H_    0.147447 0.659416 0.479084 0.280153
O99   O     O_3   0.520789 0.090654 0.704685 -0.654731
C247  C     C_3   0.473050 0.118477 0.635792 0.127283
H207  H     H_    0.485406 0.138312 0.605143 0.111549
H208  H     H_    0.434048 0.097112 0.583199 0.184178
C248  C     C_3   0.450811 0.148845 0.666770 -0.361018
H209  H     H_    0.441644 0.129364 0.701343 0.225998
H210  H     H_    0.486626 0.173695 0.712562 0.279810
C249  C     C_3   0.392360 0.172901 0.590105 -0.919069
H211  H     H_    0.400622 0.192929 0.555015 0.270353
H212  H     H_    0.377962 0.195023 0.614808 0.290492
H213  H     H_    0.354716 0.149127 0.543777 0.253765
O100  O     O_3   0.481355 0.093002 0.298892 -0.654071
C250  C     C_3   0.528129 0.120999 0.368832 0.129081
H214  H     H_    0.514370 0.140061 0.398106 0.109999
H215  H     H_    0.566975 0.099856 0.421972 0.186021
C251  C     C_3   0.551393 0.152390 0.340128 -0.373591
H216  H     H_    0.562018 0.133654 0.306909 0.226344
H217  H     H_    0.515518 0.176923 0.293696 0.269653
C252  C     C_3   0.608949 0.176888 0.418060 -0.903415
H218  H     H_    0.599243 0.196164 0.451872 0.270506
H219  H     H_    0.624045 0.199766 0.394906 0.288796
H220  H     H_    0.646670 0.153453 0.465068 0.258354
O101  O     O_3   0.523452 0.628478 0.952176 -0.650673
C253  C     C_3   0.486565 0.626165 0.861140 0.145141
H221  H     H_    0.491808 0.656285 0.836628 0.152376
H222  H     H_    0.437637 0.621687 0.826441 0.149919
C254  C     C_3   0.506116 0.586652 0.841224 -0.318817
H223  H     H_    0.554910 0.590605 0.874823 0.245758
H224  H     H_    0.501888 0.556406 0.866301 0.219318
C255  C     C_3   0.466403 0.581858 0.743093 -0.981487
H225  H     H_    0.417534 0.577036 0.708476 0.263014
H226  H     H_    0.481732 0.552959 0.730642 0.271395
H227  H     H_    0.470581 0.611526 0.716826 0.269003
O102  O     O_3   0.426019 0.628433 0.938724 -0.628604
C256  C     C_3   0.456914 0.596376 0.005254 0.158074
H228  H     H_    0.461455 0.607521 0.059618 0.177862
H229  H     H_    0.503206 0.589169 0.031322 0.160766
C257  C     C_3   0.419245 0.554077 0.967059 -0.345512
H230  H     H_    0.373933 0.560098 0.944838 0.230410
H231  H     H_    0.411655 0.544006 0.909664 0.218744
C258  C     C_3   0.451416 0.516975 0.033990 -0.992923
H232  H     H_    0.496614 0.509983 0.056386 0.267390
H233  H     H_    0.422805 0.486818 0.003653 0.268589
H234  H     H_    0.458215 0.525878 0.091133 0.273811
O103  O     O_3   0.054118 0.124880 0.020978 -0.626177
C259  C     C_3   0.021300 0.099755 0.944037 0.138312
H235  H     H_    0.019614 0.117190 0.896027 0.178642
H236  H     H_    0.973764 0.092690 0.913461 0.159749
C260  C     C_3   0.054471 0.056112 0.968122 -0.333399
H237  H     H_    0.101317 0.062352 0.995257 0.240707
H238  H     H_    0.058921 0.039524 0.019245 0.213897
C261  C     C_3   0.019979 0.025860 0.889084 -0.983043
H239  H     H_    0.973222 0.018772 0.861573 0.259005
H240  H     H_    0.045138 0.994443 0.909319 0.275299
H241  H     H_    0.016388 0.041238 0.837966 0.269858
O104  O     O_3   0.947273 0.124878 0.987843 -0.668308
C262  C     C_3   0.980764 0.103679 0.069021 0.124152
H242  H     H_    0.984037 0.124806 0.115032 0.177664
H243  H     H_    0.027637 0.095144 0.098741 0.164525
C263  C     C_3   0.947184 0.061199 0.053312 -0.336287
H244  H     H_    0.900720 0.069088 0.026004 0.242937
H245  H     H_    0.941729 0.040769 0.004793 0.219867
C264  C     C_3   0.981989 0.034924 0.137380 -0.974425
H246  H     H_    0.028059 0.025771 0.164615 0.257759
H247  H     H_    0.956133 0.004445 0.123220 0.276779
H248  H     H_    0.987127 0.054366 0.186480 0.270156
O105  O     O_3   0.458629 0.864130 0.012849 -0.744183
H249  H     H_    0.493657 0.884829 0.050266 0.328973
O106  O     O_3   0.550949 0.864949 0.009642 -0.751814
H250  H     H_    0.517220 0.886583 0.973823 0.332817
O107  O     O_3   0.955021 0.364042 0.002037 -0.749090
H251  H     H_    0.989929 0.384765 0.040384 0.334024
O108  O     O_3   0.049367 0.363763 0.003186 -0.750085
H252  H     H_    0.015451 0.385165 0.966021 0.333426
O109  O     O_3   0.400827 0.856662 0.151068 -0.627467
C265  C     C_3   0.447847 0.824897 0.192149 0.163336
H253  H     H_    0.430899 0.798734 0.143592 0.162079
H254  H     H_    0.460480 0.808443 0.250119 0.097692
C266  C     C_3   0.505163 0.845781 0.219117 -0.301229
H255  H     H_    0.491941 0.865665 0.164278 0.265748
H256  H     H_    0.527137 0.867903 0.275601 0.239252
C267  C     C_3   0.551602 0.811234 0.244518 -0.984536
H257  H     H_    0.566218 0.791373 0.300363 0.272323
H258  H     H_    0.592621 0.827625 0.264233 0.267365
H259  H     H_    0.531326 0.789303 0.188226 0.272297
O110  O     O_3   0.594189 0.853123 0.842640 -0.624852
C268  C     C_3   0.551175 0.818207 0.799597 0.121608
H260  H     H_    0.576182 0.787023 0.831873 0.148203
H261  H     H_    0.524855 0.815308 0.728438 0.117899
C269  C     C_3   0.504786 0.824739 0.807256 -0.292097
H262  H     H_    0.529125 0.834668 0.874833 0.280846
H263  H     H_    0.472735 0.851516 0.762543 0.228313
C270  C     C_3   0.468354 0.782877 0.784591 -1.030948
H264  H     H_    0.444622 0.771786 0.717634 0.268876
H265  H     H_    0.433765 0.789137 0.788066 0.278348
H266  H     H_    0.499259 0.756369 0.831449 0.274481
O111  O     O_3   0.910415 0.349183 0.165481 -0.631063
C271  C     C_3   0.952211 0.313826 0.209988 0.120377
H267  H     H_    0.925994 0.282655 0.180765 0.156659
H268  H     H_    0.979658 0.313007 0.281694 0.121889
C272  C     C_3   0.997308 0.317151 0.199105 -0.312881
H269  H     H_    0.972367 0.326793 0.131128 0.279921
H270  H     H_    0.031895 0.343056 0.243311 0.225505
C273  C     C_3   0.029839 0.273680 0.219416 -0.999545
H271  H     H_    0.054056 0.262719 0.286697 0.269419
H272  H     H_    0.063722 0.277733 0.213834 0.271823
H273  H     H_    0.996206 0.248072 0.172353 0.277073
O112  O     O_3   0.092501 0.350957 0.838945 -0.630195
C274  C     C_3   0.049992 0.315725 0.795246 0.122802
H274  H     H_    0.075545 0.284543 0.825838 0.157517
H275  H     H_    0.022934 0.313961 0.723720 0.120172
C275  C     C_3   0.004454 0.320422 0.804959 -0.314642
H276  H     H_    0.029448 0.329952 0.872934 0.280964
H277  H     H_    0.971284 0.346893 0.760960 0.225581
C276  C     C_3   0.969690 0.277704 0.783297 -0.994331
H278  H     H_    0.945347 0.266849 0.715958 0.270249
H279  H     H_    0.935630 0.282745 0.788201 0.272244
H280  H     H_    0.001917 0.251572 0.830035 0.275405
O113  O     O_3   0.223999 0.818824 0.126983 -0.776712
H281  H     H_    0.190312 0.808010 0.121119 0.354022
O114  O     O_3   0.778689 0.825876 0.877730 -0.770427
H282  H     H_    0.815268 0.819897 0.887464 0.360558
O115  O     O_3   0.722454 0.322308 0.123557 -0.779125
H283  H     H_    0.685257 0.316382 0.112465 0.356309
O116  O     O_3   0.267772 0.309835 0.857924 -0.772803
H284  H     H_    0.289331 0.289947 0.849825 0.369786
O117  O     O_3   0.203226 0.836128 0.237215 -0.594501
C277  C     C_3   0.158149 0.867660 0.176947 0.076259
H285  H     H_    0.113312 0.850291 0.129965 0.168194
H286  H     H_    0.165551 0.883557 0.137137 0.136567
C278  C     C_3   0.154023 0.902670 0.224445 -0.296478
H287  H     H_    0.146321 0.886571 0.263518 0.246005
H288  H     H_    0.197865 0.921292 0.269708 0.239741
C279  C     C_3   0.101708 0.934620 0.159950 -0.992330
H289  H     H_    0.108587 0.951367 0.120465 0.264398
H290  H     H_    0.100389 0.959823 0.196411 0.267741
H291  H     H_    0.057036 0.916958 0.115476 0.278158
O118  O     O_3   0.797370 0.843267 0.765310 -0.569131
C280  C     C_3   0.832367 0.882201 0.804782 0.063211
H292  H     H_    0.833741 0.894263 0.855916 0.143328
H293  H     H_    0.812573 0.908170 0.754351 0.132657
C281  C     C_3   0.898206 0.873130 0.848544 -0.284808
H294  H     H_    0.918166 0.847143 0.898801 0.221337
H295  H     H_    0.898155 0.861323 0.798780 0.234259
C282  C     C_3   0.938145 0.914234 0.892379 -0.990033
H296  H     H_    0.919728 0.940529 0.843204 0.264825
H297  H     H_    0.985631 0.906521 0.923723 0.269275
H298  H     H_    0.939686 0.926175 0.943500 0.267988
O119  O     O_3   0.701951 0.337580 0.233671 -0.592324
C283  C     C_3   0.665794 0.375900 0.196636 0.077769
H299  H     H_    0.662099 0.389244 0.143888 0.127511
H300  H     H_    0.686069 0.401426 0.247932 0.178000
C284  C     C_3   0.601266 0.364795 0.156743 -0.295035
H301  H     H_    0.580107 0.340101 0.104029 0.217008
H302  H     H_    0.604069 0.350515 0.207893 0.247613
C285  C     C_3   0.560657 0.405428 0.118521 -0.982323
H303  H     H_    0.580182 0.430248 0.170456 0.269514
H304  H     H_    0.514103 0.396201 0.089677 0.279900
H305  H     H_    0.556601 0.419985 0.066442 0.267644
O120  O     O_3   0.286453 0.328178 0.745531 -0.598508
C286  C     C_3   0.337909 0.352037 0.818580 0.147829
H306  H     H_    0.365733 0.330246 0.876778 0.162662
H307  H     H_    0.325849 0.381877 0.834526 0.116374
C287  C     C_3   0.377134 0.366243 0.800683 -0.331992
H308  H     H_    0.385904 0.337613 0.778342 0.241716
H309  H     H_    0.351864 0.391236 0.747794 0.226470
C288  C     C_3   0.438517 0.385309 0.882432 -0.988768
H310  H     H_    0.431101 0.414079 0.906289 0.270435
H311  H     H_    0.465415 0.395988 0.866888 0.271990
H312  H     H_    0.465312 0.360088 0.934777 0.275614
O121  O     O_3   0.296126 0.870074 0.400597 -0.604688
C289  C     C_3   0.315794 0.834179 0.456956 0.168936
H313  H     H_    0.365839 0.837441 0.515498 0.182600
H314  H     H_    0.306843 0.801996 0.424880 0.113350
C290  C     C_3   0.280850 0.834849 0.485419 -0.326636
H315  H     H_    0.281965 0.868488 0.506592 0.241432
H316  H     H_    0.232115 0.825795 0.428819 0.225971
C291  C     C_3   0.308501 0.803299 0.560866 -1.010159
H317  H     H_    0.313964 0.770114 0.545672 0.267597
H318  H     H_    0.278126 0.800915 0.573093 0.288393
H319  H     H_    0.353904 0.815795 0.620974 0.281564
O122  O     O_3   0.698336 0.863651 0.592891 -0.604457
C292  C     C_3   0.689087 0.906154 0.558107 0.139079
H320  H     H_    0.733729 0.918319 0.583382 0.124225
H321  H     H_    0.672811 0.931057 0.576892 0.151180
C293  C     C_3   0.643429 0.903253 0.458299 -0.289063
H322  H     H_    0.663370 0.883049 0.439395 0.207471
H323  H     H_    0.600551 0.887030 0.432476 0.277746
C294  C     C_3   0.627527 0.948530 0.416616 -0.926667
H324  H     H_    0.605414 0.968669 0.432141 0.278581
H325  H     H_    0.594982 0.945076 0.344475 0.266290
H326  H     H_    0.669588 0.965482 0.440814 0.248959
O123  O     O_3   0.795255 0.369311 0.399761 -0.603431
C295  C     C_3   0.817837 0.334160 0.458722 0.177179
H327  H     H_    0.867263 0.339843 0.517672 0.186659
H328  H     H_    0.812536 0.301821 0.429541 0.109124
C296  C     C_3   0.781995 0.332502 0.485715 -0.332584
H329  H     H_    0.780081 0.365842 0.504828 0.241433
H330  H     H_    0.734217 0.321527 0.429047 0.228262
C297  C     C_3   0.811573 0.301517 0.562583 -1.002573
H331  H     H_    0.818816 0.268645 0.548674 0.269571
H332  H     H_    0.781407 0.298016 0.575020 0.282433
H333  H     H_    0.856307 0.315198 0.622115 0.280769
O124  O     O_3   0.194178 0.365666 0.586371 -0.597087
C298  C     C_3   0.176450 0.328478 0.533617 0.181884
H334  H     H_    0.127579 0.332188 0.471385 0.173058
H335  H     H_    0.181435 0.296938 0.565053 0.107762
C299  C     C_3   0.216805 0.326150 0.514136 -0.329285
H336  H     H_    0.218854 0.358889 0.492917 0.238586
H337  H     H_    0.264166 0.316888 0.574875 0.230815
C300  C     C_3   0.192286 0.292953 0.442424 -1.006995
H338  H     H_    0.184181 0.260663 0.457447 0.269712
H339  H     H_    0.226016 0.288768 0.436692 0.280762
H340  H     H_    0.148728 0.305079 0.378961 0.281732
O125  O     O_3   0.411392 0.881510 0.462697 -0.721406
H341  H     H_    0.449636 0.875444 0.476658 0.306209
O126  O     O_3   0.584250 0.877524 0.536243 -0.738752
H342  H     H_    0.547127 0.872071 0.525650 0.314130
O127  O     O_3   0.910945 0.381544 0.463173 -0.721043
H343  H     H_    0.949489 0.375427 0.477980 0.306435
O128  O     O_3   0.082362 0.381035 0.531333 -0.710407
H344  H     H_    0.044490 0.375692 0.518865 0.303720

loop_
_geom_bond_atom_site_label_1
_geom_bond_atom_site_label_2
_ccdc_geom_bond_type
C270  H266  S    
C99   C103  A    
O76   H124  S    
C176  H18   S    
C204  H82   S    
C134  O42   A    
C55   C59   A    
C214  H115  S    
C220  H140  S    
O1    Zn1   S    
C186  H40   S    
C271  C272  S    
C143  O7    A    
C248  H209  S    
C298  H335  S    
C280  H292  S    
C165  C166  A    
O81   H129  S    
C288  H312  S    
C284  H302  S    
C265  H253  S    
C47   O27   A    
O54   C184  S    
C212  H110  S    
C28   O124  S    
C154  C158  A    
C57   C145  S    
C241  H193  S    
C20   C40   A    
C17   O113  S    
C254  C255  S    
O104  C262  S    
C249  H212  S    
O123  C295  S    
C29   C33   A    
C100  C104  A    
C242  C243  S    
C5    C149  A    
C173  H10   S    
C261  H241  S    
C106  O86   S    
C181  H29   S    
C244  H200  S    
C218  H135  S    
C149  C153  A    
C263  H244  S    
C64   C84   A    
C8    C168  A    
C215  C216  S    
C159  O95   S    
O114  H282  S    
C267  H257  S    
C152  C156  A    
C195  H61   S    
C218  H136  S    
C279  H289  S    
C31   O127  S    
C183  H35   S    
C98   C118  A    
C151  C155  A    
O58   C196  S    
C273  H272  S    
C247  C248  S    
O26   Zn6   S    
C266  C267  S    
C297  H333  S    
C10   C162  A    
O17   Zn5   S    
O127  H343  S    
C215  H117  S    
C262  H243  S    
O30   Zn2   S    
C41   C49   A    
C291  H317  S    
O24   Zn4   S    
O21   Zn1   S    
C275  H277  S    
C296  H330  S    
C25   C29   A    
C268  C269  S    
C191  H53   S    
C27   C31   A    
C222  H144  S    
C281  C282  S    
C28   C32   A    
O102  C256  S    
C273  H273  S    
C209  H103  S    
C198  H69   S    
C62   C66   A    
C265  C266  S    
C26   O122  S    
C278  H287  S    
C231  H167  S    
C17   C21   A    
C207  H98   S    
C19   C23   A    
O6    Zn11  S    
O49   C169  S    
C258  H233  S    
C275  C276  S    
C78   C82   A    
C286  H306  S    
C51   O111  S    
C68   C72   A    
O43   Zn7   S    
C235  H175  S    
O56   C190  S    
C274  C275  S    
O101  C253  S    
C183  H33   S    
C169  H2    S    
O107  H251  S    
O28   Zn8   S    
C164  C168  A    
C1    C41   S    
C187  H43   S    
C260  H238  S    
C48   C155  S    
C115  C139  A    
C87   O67   S    
C204  H84   S    
C227  H157  S    
C180  H27   S    
C125  C129  A    
O109  C265  S    
O32   Zn4   S    
C220  C221  S    
C113  C137  A    
C107  O87   S    
C229  H161  S    
O23   Zn3   S    
C130  C138  A    
O74   H122  S    
C233  H170  S    
C143  O47   A    
C174  H14   S    
C293  C294  S    
C178  H23   S    
C46   C153  S    
C217  H134  S    
C15   O107  S    
C193  C194  S    
C238  H182  S    
C269  H263  S    
C138  C141  S    
C27   O123  S    
O68   H92   S    
C295  C296  S    
O14   Zn9   S    
C237  H179  S    
C119  C123  A    
C227  C228  S    
C173  C174  S    
C4    O20   A    
C243  H198  S    
C67   C136  S    
C18   C38   A    
C72   O64   S    
C184  H37   S    
O63   H87   S    
C282  H297  S    
C225  H151  S    
C66   C70   A    
C262  H242  S    
C195  H63   S    
C49   C53   A    
C10   O102  S    
C279  H290  S    
C208  H100  S    
C285  H304  S    
C5    C165  A    
C272  H270  S    
C97   C117  A    
C252  H218  S    
C127  C131  A    
C234  H173  S    
C99   C119  A    
C198  H68   S    
C132  O100  S    
C129  C137  A    
C257  H230  S    
C267  H258  S    
O117  C277  S    
C248  C249  S    
C34   C58   A    
C73   C77   A    
C103  C107  A    
C45   C154  S    
C60   C148  S    
C198  H70   S    
C172  H9    S    
C205  H93   S    
C220  H141  S    
C75   C79   A    
C291  H319  S    
C161  C165  A    
O66   H90   S    
C170  H3    S    
C185  H39   S    
C175  H15   S    
C264  H247  S    
C59   C147  S    
C274  H275  S    
C251  H217  S    
C137  C142  S    
C276  H278  S    
O42   Zn6   S    
C112  O92   S    
C133  O41   A    
C177  H20   S    
O103  C259  S    
C140  C143  S    
O33   Zn5   S    
C236  C237  S    
C290  C291  S    
C237  H181  S    
C19   O115  S    
C277  H285  S    
C202  C203  S    
O77   H125  S    
C295  H327  S    
C61   O57   S    
O37   Zn1   S    
C228  H158  S    
O7    Zn10  S    
C253  H222  S    
C151  O51   S    
C64   C68   A    
C244  C245  S    
C186  H41   S    
C271  H268  S    
C224  H150  S    
C300  H338  S    
C238  C239  S    
C287  H309  S    
C192  H55   S    
C20   O116  S    
O71   C211  S    
C235  C236  S    
C145  O13   A    
C171  H5    S    
C146  O10   A    
C172  H8    S    
C118  C122  A    
C157  C161  A    
O99   C247  S    
C280  H293  S    
C193  H58   S    
C136  O44   A    
C85   C93   A    
C187  C188  S    
C246  H204  S    
C293  H323  S    
O86   C220  S    
C253  C254  S    
C87   C95   A    
C208  C209  S    
C287  C288  S    
O126  H342  S    
C9    C10   A    
C110  C114  A    
C51   C55   A    
O4    Zn4   S    
C233  C234  S    
C55   O55   S    
C201  H76   S    
C44   C52   A    
C129  O97   S    
C105  O85   S    
C91   C123  S    
C232  H168  S    
C47   O23   A    
C196  H65   S    
C158  O94   S    
O85   C217  S    
C231  H166  S    
C216  H119  S    
C247  H208  S    
C46   O26   A    
C246  H206  S    
C189  H48   S    
C71   C75   A    
C101  C105  A    
C30   C34   A    
C155  C159  A    
C110  O90   S    
C156  C160  A    
O31   Zn3   S    
C197  H66   S    
C144  O48   A    
C100  O80   S    
C208  H101  S    
C116  C120  A    
O118  C280  S    
C84   C95   A    
C281  H295  S    
O128  H344  S    
C252  H220  S    
C299  H337  S    
C121  C125  A    
O97   C241  S    
C147  O11   A    
C2    C42   S    
C160  O96   S    
C170  H4    S    
C123  C127  A    
O78   H126  S    
C257  C258  S    
O62   H86   S    
C194  C195  S    
C259  H235  S    
C144  O8    A    
C11   C163  A    
C240  H186  S    
C294  H325  S    
C9    C161  A    
C292  H321  S    
C73   C85   A    
O72   C214  S    
C264  H246  S    
C179  H25   S    
C261  H239  S    
C42   C50   A    
C175  C176  S    
C113  C117  A    
C283  H300  S    
C286  H307  S    
C93   O69   S    
C26   C30   A    
C276  H280  S    
C115  C119  A    
C70   O62   S    
C200  H74   S    
C74   C78   A    
C281  H294  S    
C239  H185  S    
O64   H88   S    
C180  H28   S    
C299  C300  S    
C236  H177  S    
C112  C116  A    
C201  H77   S    
C135  O39   A    
O44   Zn8   S    
C256  C257  S    
C75   C87   A    
C270  H265  S    
C7    C167  A    
C265  H254  S    
C4    O4    A    
C241  C242  S    
C18   C22   A    
C107  C111  A    
C68   C135  S    
C76   C80   A    
C211  H107  S    
C179  C180  S    
C300  H340  S    
C296  H329  S    
C99   O79   S    
O52   C178  S    
C288  H311  S    
C89   O29   A    
C171  H7    S    
C190  C191  S    
C149  O49   S    
C232  H169  S    
C177  H19   S    
C61   C81   A    
O105  H249  S    
C241  H194  S    
C81   C94   A    
C285  H305  S    
O19   Zn7   S    
C249  H213  S    
C83   C96   A    
O25   Zn5   S    
O50   C172  S    
C242  H196  S    
C173  H11   S    
C181  H30   S    
C114  C138  A    
C61   C65   A    
C37   C41   A    
C289  H313  S    
C188  C189  S    
C263  H245  S    
C250  C251  S    
O121  C289  S    
C131  C139  A    
O92   C238  S    
O9    Zn9   S    
C250  H214  S    
C40   C44   A    
C223  H147  S    
C195  H62   S    
C126  O74   S    
C182  C183  S    
C63   O59   S    
O96   H192  S    
C69   O61   S    
O106  H250  S    
C90   O34   A    
C230  H163  S    
C3    O19   A    
O3    Zn3   S    
O91   C235  S    
C266  H256  S    
C135  O43   A    
C88   C96   A    
C178  C179  S    
C181  C182  S    
C108  O88   S    
C125  O73   S    
C294  H324  S    
C197  C198  S    
C80   C84   A    
C291  H318  S    
C226  C227  S    
C62   O58   S    
O51   C175  S    
C203  H80   S    
O41   Zn5   S    
C268  H261  S    
C50   C54   A    
C9    O101  S    
C160  C164  A    
C16   O108  S    
C199  H72   S    
C266  H255  S    
C228  H160  S    
C92   C124  S    
C106  C110  A    
C210  H106  S    
C134  O38   A    
C47   C156  S    
C126  C130  A    
C152  O52   S    
C270  H264  S    
C259  C260  S    
C23   O119  S    
C240  H188  S    
O120  C286  S    
C85   O65   S    
C35   C59   A    
C196  H64   S    
C104  O84   S    
C105  C109  A    
C162  C166  A    
C212  H109  S    
C245  H203  S    
C235  H176  S    
C222  H146  S    
C272  H269  S    
C199  C200  S    
C69   C73   A    
C65   C134  S    
C92   O36   A    
C72   C76   A    
C124  C128  A    
C282  H298  S    
C187  H44   S    
C62   C82   A    
C176  C177  S    
O119  C283  S    
C204  H83   S    
C82   C93   A    
O93   H189  S    
C261  H240  S    
C214  C215  S    
C244  H201  S    
C229  H162  S    
C219  H139  S    
O29   Zn1   S    
C71   O63   S    
C25   O121  S    
C233  H171  S    
O60   C202  S    
C174  H13   S    
C45   O25   A    
C284  C285  S    
C146  O14   A    
C190  H50   S    
O75   H123  S    
C24   C28   A    
O108  H252  S    
C212  C213  S    
C250  H215  S    
C142  O46   A    
C142  O6    A    
C21   C25   A    
C167  C168  A    
C136  O40   A    
C53   C57   A    
C285  H303  S    
C255  H225  S    
C234  H174  S    
C237  H180  S    
C217  C218  S    
C297  H331  S    
C256  H228  S    
C157  O93   S    
O12   Zn12  S    
O11   Zn11  S    
C33   C37   A    
C108  C112  A    
C63   C83   A    
O47   Zn9   S    
C229  C230  S    
C109  O89   S    
C35   C39   A    
C224  H149  S    
C185  C186  S    
C184  H36   S    
O45   Zn11  S    
C98   C102  A    
C12   C164  A    
C225  H152  S    
O59   C199  S    
C103  O83   S    
C223  C224  S    
C77   C81   A    
O22   Zn2   S    
C218  C219  S    
C58   C146  S    
O35   Zn7   S    
O112  C274  S    
C269  H262  S    
C273  H271  S    
C2    O2    A    
C7    C151  A    
C7    C16   A    
C257  H231  S    
C283  H299  S    
C8    C15   A    
C150  O50   S    
C248  H210  S    
C215  H116  S    
C54   C58   A    
C262  C263  S    
C31   C35   A    
C205  H94   S    
C32   C36   A    
O55   C187  S    
C245  H202  S    
C225  H153  S    
C175  H16   S    
C275  H276  S    
C268  H260  S    
C296  C297  S    
C11   O103  S    
C191  H52   S    
C8    C152  A    
C96   O72   S    
C226  H154  S    
C197  H67   S    
C209  H102  S    
C236  H178  S    
O15   Zn12  S    
C254  H224  S    
C277  H286  S    
C210  H104  S    
C202  H79   S    
O13   Zn10  S    
C132  C140  A    
C4    C44   S    
C194  H59   S    
C172  C173  S    
C205  C206  S    
C249  H211  S    
C50   O110  S    
C185  H38   S    
C258  H234  S    
C12   O104  S    
C238  H183  S    
C200  H73   S    
C43   C51   A    
C192  H54   S    
C89   C121  S    
C65   C69   A    
O122  C292  S    
C171  H6    S    
C67   C71   A    
O73   H121  S    
C153  C157  A    
C169  H1    S    
O48   Zn10  S    
C48   O24   A    
C277  C278  S    
C97   O77   S    
C282  H296  S    
C251  C252  S    
C56   C60   A    
C260  C261  S    
C221  H142  S    
C278  H288  S    
C227  H156  S    
C22   C26   A    
C230  C231  S    
C214  H114  S    
C206  H96   S    
C298  C299  S    
C213  H111  S    
O16   Zn11  S    
C91   O35   A    
C219  H137  S    
C86   O66   S    
C191  C192  S    
O40   Zn4   S    
C297  H332  S    
C89   O33   A    
C284  H301  S    
C56   O56   S    
C217  H133  S    
C29   O125  S    
O113  H281  S    
O34   Zn6   S    
O111  C271  S    
C269  C270  S    
O82   H130  S    
C207  H97   S    
C255  H226  S    
C216  H118  S    
C201  H75   S    
C101  O81   S    
C234  H172  S    
C246  H205  S    
C230  H164  S    
O115  H283  S    
O90   C232  S    
C88   O68   S    
C182  H31   S    
O8    Zn9   S    
C189  H49   S    
C3    C43   S    
O124  C298  S    
C243  H197  S    
C54   O54   S    
C183  H34   S    
C38   C42   A    
C184  C185  S    
C283  C284  S    
C133  O37   A    
C15   C16   A    
C104  C108  A    
C180  H26   S    
C293  H322  S    
C169  C170  S    
C255  H227  S    
C272  C273  S    
C1    O1    A    
C252  H219  S    
C117  C121  A    
C70   C74   A    
C131  O99   S    
C86   C94   A    
C290  H316  S    
C22   O118  S    
O116  H284  S    
C295  H328  S    
C6    C166  A    
C79   C83   A    
C213  H113  S    
C211  C212  S    
O94   H190  S    
O38   Zn2   S    
C100  C120  A    
C23   C27   A    
C127  O75   S    
O46   Zn12  S    
C292  H320  S    
C76   C88   A    
C245  C246  S    
C77   C78   A    
C264  H248  S    
C91   O31   A    
C21   O117  S    
C251  H216  S    
C64   O60   S    
C276  H279  S    
O36   Zn8   S    
C141  O5    A    
C98   O78   S    
C90   C122  S    
C239  C240  S    
O88   C226  S    
C46   O22   A    
C209  C210  S    
C128  C132  A    
C170  C171  S    
C242  H195  S    
C256  H229  S    
C52   O112  S    
C63   C67   A    
C253  H221  S    
O87   C223  S    
C20   C24   A    
C36   C40   A    
C186  H42   S    
C271  H267  S    
C128  O76   S    
C211  H108  S    
C224  C225  S    
C141  O45   A    
C258  H232  S    
C300  H339  S    
C188  H45   S    
C24   O120  S    
C287  H308  S    
O70   C208  S    
C192  H56   S    
C39   C43   A    
C289  C290  S    
C194  H60   S    
C288  H310  S    
C254  H223  S    
O80   H128  S    
C259  H236  S    
C190  H51   S    
C122  C126  A    
C280  C281  S    
C163  C167  A    
C2    O18   A    
C95   O71   S    
C193  H57   S    
C176  H17   S    
C206  C207  S    
C66   C133  S    
C139  C144  S    
C260  H237  S    
C221  C222  S    
C148  O16   A    
O100  C250  S    
O95   H191  S    
C290  H315  S    
C5    C14   A    
C17   C37   A    
C74   C86   A    
C6    C150  A    
C289  H314  S    
C188  H46   S    
C263  C264  S    
O69   C205  S    
C114  C118  A    
C19   C39   A    
C102  O82   S    
O20   Zn8   S    
C45   O21   A    
O98   C244  S    
C223  H148  S    
O79   H127  S    
C203  H81   S    
C182  H32   S    
O18   Zn6   S    
C196  C197  S    
C159  C163  A    
C232  C233  S    
C177  H21   S    
C274  H274  S    
C298  H334  S    
C207  H99   S    
C130  O98   S    
C216  H120  S    
C247  H207  S    
C111  O91   S    
O65   H89   S    
O125  H341  S    
C147  O15   A    
C189  H47   S    
C33   C57   A    
C34   C38   A    
C243  H199  S    
C278  C279  S    
C221  H143  S    
O110  C268  S    
C36   C60   A    
O5    Zn12  S    
C148  O12   A    
C13   O105  S    
C174  H12   S    
C226  H155  S    
C18   O114  S    
C90   O30   A    
C109  C113  A    
C203  C204  S    
C49   O109  S    
O61   H85   S    
O39   Zn3   S    
C279  H291  S    
O89   C229  S    
C1    O17   A    
C219  H138  S    
C178  H22   S    
C299  H336  S    
O84   H132  S    
C228  H159  S    
C92   O32   A    
O67   H91   S    
C6    C13   A    
O27   Zn7   S    
C210  H105  S    
C202  H78   S    
C3    O3    A    
O83   H131  S    
C206  H95   S    
C267  H259  S    
C53   O53   S    
C231  H165  S    
C240  H187  S    
C48   O28   A    
C102  C106  A    
C294  H326  S    
C213  H112  S    
O57   C193  S    
C292  C293  S    
C94   O70   S    
O10   Zn10  S    
C179  H24   S    
C158  C162  A    
C79   C80   A    
C120  C124  A    
C286  C287  S    
C14   O106  S    
C150  C154  A    
C200  C201  S    
C145  O9    A    
C222  H145  S    
C199  H71   S    
C239  H184  S    
C32   O128  S    
C111  C115  A    
C30   O126  S    
O2    Zn2   S    
C13   C14   A    
C97   C101  A    
C52   C56   A    
C11   C12   A    
C116  C140  A    
O53   C181  S    
