data_mof_unit_3992.cif
_audit_creation_date              2012-12-11T15:21:15-0500
_audit_creation_method            fapswitch 2.2
_symmetry_space_group_name_H-M    P1
_symmetry_Int_Tables_number       1
_space_group_crystal_system       triclinic
_cell_length_a                    18.322227
_cell_length_b                    18.382338
_cell_length_c                    51.273993
_cell_angle_alpha                 89.99976
_cell_angle_beta                  90.000387
_cell_angle_gamma                 119.892276
_cell_volume                      14971.9090926

loop_
_atom_site_label
_atom_site_type_symbol
_atom_type_description
_atom_site_fract_x
_atom_site_fract_y
_atom_site_fract_z
_atom_type_partial_charge
C1    C     C_R   0.407617 0.585340 0.288068 0.544425
C2    C     C_R   0.407618 0.585339 0.211932 0.544426
C3    C     C_R   0.102510 0.524197 0.367218 0.244036
C4    C     C_R   0.102393 0.524152 0.132794 0.244084
C5    C     C_R   0.629618 0.468880 0.668261 -0.132504
C6    C     C_R   0.629637 0.468919 0.831735 -0.132500
C7    C     C_R   0.493766 0.441854 0.684073 -0.124872
C8    C     C_R   0.493748 0.441813 0.815932 -0.124880
C9    C     C_R   0.478145 0.467918 0.660106 -0.045144
C10   C     C_R   0.478124 0.467869 0.839899 -0.045137
C11   C     C_R   0.536739 0.491506 0.639622 0.227601
C12   C     C_R   0.536736 0.491491 0.860379 0.227610
C13   C     C_R   0.549210 0.615958 0.492775 -0.025776
C14   C     C_R   0.549188 0.615936 0.007226 -0.025782
C15   C     C_R   0.472189 0.562855 0.479910 0.021485
C16   C     C_R   0.472184 0.562796 0.020094 0.021476
C17   C     C_R   0.400226 0.505928 0.494518 0.023898
C18   C     C_R   0.400234 0.505827 0.005489 0.023886
C19   C     C_R   0.620688 0.666988 0.477490 -0.106674
C20   C     C_R   0.620659 0.667010 0.022508 -0.106679
C21   C     C_R   0.317088 0.467050 0.454508 -0.109069
C22   C     C_R   0.317108 0.466909 0.045502 -0.109130
C23   C     C_R   0.344393 0.428214 0.536093 -0.141126
C24   C     C_R   0.344424 0.428085 0.963918 -0.141139
C25   C     C_R   0.062057 0.478905 0.448416 -0.032262
C26   C     C_R   0.061885 0.478870 0.051600 -0.032245
C27   C     C_R   0.355610 0.415976 0.562252 -0.103188
C28   C     C_R   0.355643 0.415856 0.937759 -0.103189
C29   C     C_R   0.322483 0.461068 0.481373 -0.143800
C30   C     C_R   0.322500 0.460924 0.018637 -0.143849
C31   C     C_R   0.590524 0.174615 0.712507 0.567291
C32   C     C_R   0.590525 0.174616 0.787493 0.567304
C33   C     C_R   0.824677 0.415559 0.712387 0.541453
C34   C     C_R   0.824677 0.415559 0.787613 0.541457
C35   C     C_R   0.584087 0.408882 0.712546 0.530172
C36   C     C_R   0.584087 0.408882 0.787454 0.530166
C37   C     C_R   0.995324 0.435407 0.430651 0.030640
C38   C     C_R   0.995126 0.435487 0.069364 0.030626
C39   C     C_R   0.914929 0.379518 0.440141 -0.103653
C40   C     C_R   0.914694 0.379722 0.059874 -0.103648
C41   C     C_R   0.143350 0.534430 0.438821 0.024559
C42   C     C_R   0.143213 0.534271 0.061194 0.024598
C43   C     C_R   0.139881 0.563943 0.314139 0.009890
C44   C     C_R   0.139846 0.563925 0.185867 0.009905
C45   C     C_R   0.872007 0.428158 0.687832 0.007836
C46   C     C_R   0.871998 0.428153 0.812169 0.007839
C47   C     C_R   0.950704 0.398757 0.512487 0.021356
C48   C     C_R   0.950484 0.398852 0.987529 0.021360
C49   C     C_R   0.097236 0.509859 0.520751 0.012646
C50   C     C_R   0.097108 0.509729 0.979264 0.012658
C51   C     C_R   0.015596 0.451418 0.530109 0.034461
C52   C     C_R   0.015430 0.451403 0.969906 0.034467
C53   C     C_R   0.176797 0.591930 0.287902 0.545750
C54   C     C_R   0.176792 0.591927 0.212099 0.545750
C55   C     C_R   0.872646 0.337024 0.522910 -0.140997
C56   C     C_R   0.872373 0.337225 0.977108 -0.140978
C57   C     C_R   0.856831 0.331544 0.549507 -0.109306
C58   C     C_R   0.856572 0.331748 0.950510 -0.109292
C59   C     C_R   0.918086 0.387064 0.566893 0.032267
C60   C     C_R   0.917895 0.387164 0.933121 0.032262
C61   C     C_R   0.998190 0.446292 0.557353 -0.032147
C62   C     C_R   0.998042 0.446282 0.942661 -0.032143
C63   C     C_R   0.060459 0.501019 0.574998 0.023982
C64   C     C_R   0.060373 0.500907 0.925014 0.023985
C65   C     C_R   0.040889 0.497621 0.601735 0.430222
C66   C     C_R   0.040831 0.497515 0.898275 0.430228
C67   C     C_R   0.900538 0.384916 0.593664 0.420381
C68   C     C_R   0.900377 0.385017 0.906348 0.420366
C69   C     C_R   0.918533 0.369961 0.653261 -0.052074
C70   C     C_R   0.918425 0.369922 0.846757 -0.052100
C71   C     C_R   0.884986 0.363861 0.678122 -0.134819
C72   C     C_R   0.884902 0.363823 0.821893 -0.134835
C73   C     C_R   0.897561 0.500648 0.672649 -0.138672
C74   C     C_R   0.897611 0.500676 0.827341 -0.138667
C75   C     C_R   0.415486 0.824326 0.287631 0.542580
C76   C     C_R   0.415485 0.824325 0.212369 0.542575
C77   C     C_R   0.931111 0.506561 0.647733 -0.055643
C78   C     C_R   0.931141 0.506588 0.852260 -0.055644
C79   C     C_R   0.939791 0.440340 0.637677 0.237766
C80   C     C_R   0.939739 0.440335 0.862330 0.237804
C81   C     C_R   0.965387 0.409926 0.485163 0.019979
C82   C     C_R   0.965171 0.410019 0.014853 0.019983
C83   C     C_R   0.047255 0.467545 0.475793 0.035298
C84   C     C_R   0.047078 0.467516 0.024222 0.035316
C85   C     C_R   0.114191 0.514803 0.493498 0.016973
C86   C     C_R   0.114049 0.514660 0.006517 0.016998
C87   C     C_R   0.900126 0.366996 0.466755 -0.136118
C88   C     C_R   0.899883 0.367206 0.033261 -0.136107
C89   C     C_R   0.209951 0.575631 0.456438 -0.125078
C90   C     C_R   0.209835 0.575356 0.043578 -0.125035
C91   C     C_R   0.158560 0.563144 0.539039 -0.133490
C92   C     C_R   0.158490 0.562915 0.960974 -0.133501
C93   C     C_R   0.140402 0.558725 0.565527 -0.082810
C94   C     C_R   0.140353 0.558507 0.934485 -0.082833
C95   C     C_R   0.195872 0.566172 0.483182 -0.153289
C96   C     C_R   0.195753 0.565904 0.016834 -0.153280
C97   C     C_R   0.010068 0.450022 0.403716 0.423664
C98   C     C_R   0.009886 0.450093 0.096299 0.423663
C99   C     C_R   0.389931 0.874544 0.408461 0.420730
C100  C     C_R   0.390124 0.874428 0.091527 0.420709
C101  C     C_R   0.492228 0.019334 0.401089 0.423911
C102  C     C_R   0.492103 0.019312 0.098907 0.423927
C103  C     C_R   0.507126 0.923169 0.352679 -0.062108
C104  C     C_R   0.507170 0.923230 0.147331 -0.062114
C105  C     C_R   0.501909 0.895872 0.327023 -0.147053
C106  C     C_R   0.501942 0.895946 0.172989 -0.147060
C107  C     C_R   0.359453 0.872089 0.324113 -0.139954
C108  C     C_R   0.359414 0.871978 0.175868 -0.139936
C109  C     C_R   0.364838 0.899305 0.349764 -0.057083
C110  C     C_R   0.364808 0.899176 0.150215 -0.057089
C111  C     C_R   0.437857 0.922868 0.364330 0.241479
C112  C     C_R   0.437872 0.922826 0.135664 0.241508
C113  C     C_R   0.448878 0.969064 0.445475 -0.030199
C114  C     C_R   0.448896 0.968996 0.054518 -0.030193
C115  C     C_R   0.393945 0.888436 0.435501 0.031003
C116  C     C_R   0.394133 0.888317 0.064488 0.031003
C117  C     C_R   0.345338 0.822986 0.452708 -0.107825
C118  C     C_R   0.345689 0.822819 0.047277 -0.107788
C119  C     C_R   0.156134 0.547712 0.411754 0.443476
C120  C     C_R   0.156011 0.547550 0.088261 0.443421
C121  C     C_R   0.497797 0.035083 0.428055 0.030800
C122  C     C_R   0.497660 0.035061 0.071941 0.030797
C123  C     C_R   0.427080 0.867750 0.312743 0.009022
C124  C     C_R   0.427075 0.867739 0.187255 0.009005
C125  C     C_R   0.558384 0.128335 0.687635 0.016456
C126  C     C_R   0.558394 0.128346 0.812366 0.016477
C127  C     C_R   0.410097 0.931984 0.517558 -0.021827
C128  C     C_R   0.410209 0.931884 0.982433 -0.021828
C129  C     C_R   0.523020 0.077694 0.510049 0.031306
C130  C     C_R   0.522861 0.077706 0.989949 0.031305
C131  C     C_R   0.470818 0.011539 0.527418 0.023625
C132  C     C_R   0.470788 0.011502 0.972577 0.023627
C133  C     C_R   0.356275 0.870048 0.535468 -0.109025
C134  C     C_R   0.356486 0.869894 0.964521 -0.109000
C135  C     C_R   0.364187 0.883086 0.562292 0.252989
C136  C     C_R   0.364383 0.882945 0.937698 0.253007
C137  C     C_R   0.427337 0.960595 0.572545 0.033620
C138  C     C_R   0.427413 0.960521 0.927448 0.033612
C139  C     C_R   0.479846 0.025161 0.554903 -0.069371
C140  C     C_R   0.479804 0.025139 0.945093 -0.069375
C141  C     C_R   0.114034 0.600357 0.357430 -0.052467
C142  C     C_R   0.113902 0.600304 0.142583 -0.052492
C143  C     C_R   0.541839 0.103731 0.564675 0.035506
C144  C     C_R   0.541671 0.103773 0.935325 0.035505
C145  C     C_R   0.551869 0.117084 0.591630 0.426611
C146  C     C_R   0.551701 0.117138 0.908370 0.426631
C147  C     C_R   0.440363 0.976421 0.599714 0.453562
C148  C     C_R   0.440435 0.976366 0.900280 0.453571
C149  C     C_R   0.458323 0.077556 0.651604 -0.014345
C150  C     C_R   0.458284 0.077491 0.848384 -0.014318
C151  C     C_R   0.478234 0.106653 0.677274 0.211539
C152  C     C_R   0.478209 0.106588 0.822713 0.211555
C153  C     C_R   0.613386 0.112982 0.672451 -0.165797
C154  C     C_R   0.613431 0.113083 0.827564 -0.165802
C155  C     C_R   0.592615 0.083646 0.647017 -0.063694
C156  C     C_R   0.592648 0.083751 0.852998 -0.063713
C157  C     C_R   0.516430 0.068743 0.636198 0.191598
C158  C     C_R   0.516416 0.068759 0.863802 0.191635
C159  C     C_R   0.404616 0.916798 0.490196 0.023588
C160  C     C_R   0.404765 0.916690 0.009794 0.023591
C161  C     C_R   0.455313 0.983567 0.472881 0.039411
C162  C     C_R   0.455315 0.983506 0.027113 0.039415
C163  C     C_R   0.132198 0.620026 0.331055 -0.131542
C164  C     C_R   0.132107 0.619987 0.168956 -0.131552
C165  C     C_R   0.512811 0.064582 0.482659 0.021738
C166  C     C_R   0.512652 0.064576 0.017338 0.021734
C167  C     C_R   0.350794 0.836472 0.479433 -0.138435
C168  C     C_R   0.351126 0.836313 0.020552 -0.138400
C169  C     C_R   0.551245 0.115344 0.437890 -0.107848
C170  C     C_R   0.550941 0.115367 0.062110 -0.107864
C171  C     C_R   0.584871 0.154887 0.520748 -0.140047
C172  C     C_R   0.584588 0.154965 0.979255 -0.140061
C173  C     C_R   0.593498 0.167606 0.547407 -0.107071
C174  C     C_R   0.593211 0.167698 0.952596 -0.107080
C175  C     C_R   0.558398 0.130016 0.464549 -0.141468
C176  C     C_R   0.558083 0.130046 0.035452 -0.141485
C177  C     C_R   0.533577 0.612866 0.409642 0.444262
C178  C     C_R   0.533579 0.612866 0.090360 0.444270
C179  C     C_R   0.384172 0.520186 0.412266 0.438128
C180  C     C_R   0.384188 0.520102 0.087741 0.438150
C181  C     C_R   0.411136 0.496620 0.354413 -0.056311
C182  C     C_R   0.411189 0.496605 0.145595 -0.056300
C183  C     C_R   0.400823 0.500878 0.327486 -0.139298
C184  C     C_R   0.400870 0.500873 0.172522 -0.139293
C185  C     C_R   0.124773 0.486075 0.323921 -0.136541
C186  C     C_R   0.124749 0.486063 0.176084 -0.136517
C187  C     C_R   0.474037 0.652606 0.330163 -0.136677
C188  C     C_R   0.474002 0.652597 0.169834 -0.136665
C189  C     C_R   0.482189 0.648205 0.357033 -0.045244
C190  C     C_R   0.482158 0.648185 0.142965 -0.045196
C191  C     C_R   0.450224 0.570298 0.369507 0.235075
C192  C     C_R   0.450237 0.570275 0.130496 0.235072
C193  C     C_R   0.467242 0.565732 0.452210 -0.071865
C194  C     C_R   0.467242 0.565678 0.047794 -0.071872
C195  C     C_R   0.540312 0.616242 0.437210 0.032552
C196  C     C_R   0.540305 0.616235 0.062791 0.032560
C197  C     C_R   0.617356 0.667287 0.450375 0.254370
C198  C     C_R   0.617334 0.667317 0.049624 0.254369
C199  C     C_R   0.389102 0.517156 0.439583 0.030993
C200  C     C_R   0.389114 0.517062 0.060424 0.030964
C201  C     C_R   0.431466 0.579015 0.315152 0.010911
C202  C     C_R   0.431470 0.579013 0.184850 0.010909
C203  C     C_R   0.569604 0.442188 0.688258 0.018523
C204  C     C_R   0.569605 0.442189 0.811742 0.018498
C205  C     C_R   0.553450 0.614231 0.520442 0.019353
C206  C     C_R   0.553421 0.614204 0.979559 0.019351
C207  C     C_R   0.106023 0.466341 0.350267 -0.045920
C208  C     C_R   0.105958 0.466315 0.149740 -0.045948
C209  C     C_R   0.408699 0.494735 0.521599 0.017923
C210  C     C_R   0.408708 0.494638 0.978408 0.017917
C211  C     C_R   0.485186 0.549859 0.534506 0.039619
C212  C     C_R   0.485175 0.549798 0.965499 0.039619
C213  C     C_R   0.624373 0.673914 0.534610 -0.137479
C214  C     C_R   0.624317 0.673915 0.965388 -0.137473
C215  C     C_R   0.631225 0.665551 0.561308 -0.102095
C216  C     C_R   0.631168 0.665554 0.938690 -0.102080
C217  C     C_R   0.568177 0.596819 0.574880 0.032284
C218  C     C_R   0.568142 0.596797 0.925121 0.032297
C219  C     C_R   0.494381 0.539422 0.561598 -0.030161
C220  C     C_R   0.494369 0.539367 0.938406 -0.030154
C221  C     C_R   0.430563 0.470654 0.575236 0.033240
C222  C     C_R   0.430574 0.470572 0.924771 0.033248
C223  C     C_R   0.444397 0.456213 0.601301 0.429858
C224  C     C_R   0.444411 0.456143 0.898705 0.429871
C225  C     C_R   0.578016 0.583593 0.601379 0.424121
C226  C     C_R   0.577982 0.583578 0.898621 0.424141
C227  C     C_R   0.612731 0.491888 0.644042 -0.054035
C228  C     C_R   0.612748 0.491920 0.855954 -0.054015
Cr1   Cr    Cr6+3 0.456550 0.732290 0.250000 1.032910
Cr2   Cr    Cr6+3 0.275740 0.543450 0.250000 1.027386
Cr3   Cr    Cr6+3 0.267710 0.724260 0.250000 1.025002
Cr4   Cr    Cr6+3 0.543450 0.275740 0.750000 1.162891
Cr5   Cr    Cr6+3 0.724260 0.267710 0.750000 1.026809
Cr6   Cr    Cr6+3 0.732290 0.456550 0.750000 1.042280
H1    H     H_    0.130695 0.441759 0.311443 0.134748
H2    H     H_    0.130711 0.441762 0.188558 0.134758
H3    H     H_    0.111097 0.645249 0.370432 0.138918
H4    H     H_    0.110926 0.645180 0.129583 0.138788
H5    H     H_    0.273689 0.615972 0.449588 0.162145
H6    H     H_    0.273591 0.615598 0.050429 0.162111
H7    H     H_    0.220863 0.611195 0.533466 0.123120
H8    H     H_    0.220831 0.610884 0.966547 0.123112
H9    H     H_    0.888192 0.551115 0.679507 0.147134
H10   H     H_    0.888302 0.551170 0.820472 0.147140
H11   H     H_    0.189454 0.601625 0.578618 0.212406
H12   H     H_    0.189452 0.601329 0.921393 0.212363
H13   H     H_    0.946706 0.560934 0.635767 0.147015
H14   H     H_    0.946781 0.560988 0.864219 0.146972
H15   H     H_    0.250905 0.599345 0.495276 0.111328
H16   H     H_    0.250801 0.598978 0.004741 0.111308
H17   H     H_    0.300909 0.850793 0.313656 0.132653
H18   H     H_    0.300839 0.850612 0.186314 0.132667
H19   H     H_    0.311103 0.899000 0.358676 0.132889
H20   H     H_    0.311049 0.898788 0.141290 0.132828
H21   H     H_    0.302896 0.760404 0.445528 0.168026
H22   H     H_    0.303394 0.760197 0.054453 0.167984
H23   H     H_    0.096960 0.407257 0.357694 0.141637
H24   H     H_    0.096907 0.407238 0.142311 0.141565
H25   H     H_    0.398916 0.065061 0.643213 0.175519
H26   H     H_    0.398844 0.064929 0.856763 0.175475
H27   H     H_    0.305431 0.810203 0.529263 0.140034
H28   H     H_    0.305729 0.809995 0.970725 0.140025
H29   H     H_    0.312971 0.781543 0.491067 0.106371
H30   H     H_    0.313447 0.781356 0.008913 0.106347
H31   H     H_    0.554939 0.893054 0.318849 0.140144
H32   H     H_    0.555000 0.893206 0.181176 0.140173
H33   H     H_    0.563634 0.940964 0.363904 0.140909
H34   H     H_    0.563712 0.941095 0.136117 0.140880
H35   H     H_    0.588329 0.167584 0.424935 0.168504
H36   H     H_    0.587900 0.167637 0.075067 0.168498
H37   H     H_    0.629389 0.206944 0.509135 0.102136
H38   H     H_    0.629016 0.207066 0.990871 0.102136
H39   H     H_    0.674880 0.127945 0.679659 0.150487
H40   H     H_    0.674954 0.128114 0.820367 0.150448
H41   H     H_    0.862380 0.345666 0.426949 0.169039
H42   H     H_    0.862127 0.345963 0.073067 0.169048
H43   H     H_    0.641748 0.228260 0.554485 0.162823
H44   H     H_    0.641369 0.228400 0.945521 0.162809
H45   H     H_    0.637682 0.076522 0.635214 0.150389
H46   H     H_    0.637735 0.076696 0.864813 0.150338
H47   H     H_    0.599773 0.194150 0.470195 0.110199
H48   H     H_    0.599316 0.194210 0.029807 0.110214
H49   H     H_    0.496795 0.713822 0.321429 0.140875
H50   H     H_    0.496723 0.713814 0.178564 0.140900
H51   H     H_    0.511518 0.705705 0.368289 0.154024
H52   H     H_    0.511453 0.705678 0.131705 0.154091
H53   H     H_    0.687995 0.468336 0.671009 0.129493
H54   H     H_    0.688029 0.468408 0.828983 0.129532
H55   H     H_    0.658280 0.508332 0.628490 0.151559
H56   H     H_    0.658312 0.508393 0.871503 0.151571
H57   H     H_    0.687582 0.712178 0.571165 0.171089
H58   H     H_    0.687504 0.712206 0.928831 0.171084
H59   H     H_    0.675319 0.728763 0.525618 0.120907
H60   H     H_    0.675244 0.728786 0.974378 0.120905
H61   H     H_    0.866235 0.307269 0.689304 0.135717
H62   H     H_    0.866103 0.307205 0.810720 0.135713
H63   H     H_    0.681875 0.705292 0.486121 0.151177
H64   H     H_    0.681835 0.705346 0.013876 0.151174
H65   H     H_    0.367049 0.443229 0.316445 0.134961
H66   H     H_    0.367127 0.443229 0.183566 0.134956
H67   H     H_    0.386858 0.435893 0.363623 0.146023
H68   H     H_    0.386946 0.435877 0.136390 0.146033
H69   H     H_    0.255894 0.430998 0.445382 0.166540
H70   H     H_    0.255923 0.430825 0.054630 0.166567
H71   H     H_    0.285968 0.381809 0.527405 0.116875
H72   H     H_    0.286019 0.381653 0.972608 0.116875
H73   H     H_    0.446746 0.421392 0.699337 0.138961
H74   H     H_    0.446714 0.421322 0.800670 0.138980
H75   H     H_    0.305286 0.362563 0.572240 0.170998
H76   H     H_    0.305338 0.362421 0.927773 0.170999
H77   H     H_    0.419726 0.468233 0.657356 0.161777
H78   H     H_    0.419688 0.468148 0.842653 0.161783
H79   H     H_    0.264089 0.421938 0.491462 0.116067
H80   H     H_    0.264111 0.421758 0.008550 0.116067
H81   H     H_    0.924851 0.318405 0.645665 0.137497
H82   H     H_    0.924677 0.318340 0.854365 0.137434
H83   H     H_    0.795637 0.283700 0.556410 0.161852
H84   H     H_    0.795337 0.283990 0.943608 0.161865
H85   H     H_    0.822250 0.290924 0.511065 0.106492
H86   H     H_    0.821922 0.291206 0.988953 0.106489
H87   H     H_    0.835726 0.324969 0.472219 0.108226
H88   H     H_    0.835460 0.325281 0.027797 0.108243
H89   H     H_    0.144536 0.680902 0.324253 0.136234
H90   H     H_    0.144433 0.680857 0.175758 0.136200
N1    N     N_R   0.089426 0.506618 0.394698 -0.389885
N2    N     N_R   0.089283 0.506570 0.105316 -0.389932
N3    N     N_R   0.961392 0.440524 0.610637 -0.391995
N4    N     N_R   0.961299 0.440522 0.889373 -0.392002
N5    N     N_R   0.439264 0.939647 0.391732 -0.390067
N6    N     N_R   0.439296 0.939582 0.108261 -0.390077
N7    N     N_R   0.502250 0.053478 0.608664 -0.402441
N8    N     N_R   0.502205 0.053485 0.891334 -0.402451
N9    N     N_R   0.456106 0.566686 0.397611 -0.394254
N10   N     N_R   0.456118 0.566650 0.102393 -0.394247
N11   N     N_R   0.518388 0.511716 0.613973 -0.382301
N12   N     N_R   0.518379 0.511682 0.886029 -0.382299
O1    O     O_R   0.475290 0.813700 0.278840 -0.514624
O2    O     O_R   0.475290 0.813700 0.221160 -0.514626
O3    O     O_2   0.226437 0.596067 0.403314 -0.457922
O4    O     O_2   0.226343 0.595806 0.096701 -0.457891
O5    O     O_2   0.094388 0.545369 0.617102 -0.473854
O6    O     O_2   0.094384 0.545175 0.882906 -0.473859
O7    O     O_2   0.343480 0.804271 0.399758 -0.488814
O8    O     O_2   0.343815 0.804118 0.100227 -0.488795
O9    O     O_2   0.397827 0.921874 0.615505 -0.409753
O10   O     O_2   0.398003 0.921782 0.884486 -0.409740
O11   O     O_2   0.534439 0.076318 0.385888 -0.505519
O12   O     O_2   0.534181 0.076334 0.114112 -0.505510
O13   O     O_2   0.604830 0.185600 0.600083 -0.484450
O14   O     O_2   0.604555 0.185705 0.899919 -0.484445
O15   O     O_2   0.596577 0.649999 0.396178 -0.432576
O16   O     O_2   0.596579 0.650041 0.103822 -0.432585
O17   O     O_2   0.640154 0.635644 0.613228 -0.511911
O18   O     O_2   0.640100 0.635653 0.886769 -0.511900
O19   O     O_2   0.315690 0.481830 0.401487 -0.501644
O20   O     O_2   0.315713 0.481711 0.098522 -0.501583
O21   O     O_2   0.391546 0.393006 0.612466 -0.507513
O22   O     O_2   0.391585 0.392917 0.887543 -0.507506
O23   O     O_R   0.448450 0.657720 0.276690 -0.494477
O24   O     O_R   0.448450 0.657720 0.223310 -0.494473
O25   O     O_R   0.524710 0.338410 0.721160 -0.469049
O26   O     O_R   0.524710 0.338410 0.778840 -0.469106
O27   O     O_R   0.551550 0.209270 0.723310 -0.427824
O28   O     O_R   0.551550 0.209270 0.776690 -0.427841
O29   O     O_R   0.661590 0.186300 0.721160 -0.525404
O30   O     O_R   0.661590 0.186300 0.778840 -0.525412
O31   O     O_R   0.790730 0.342280 0.723310 -0.499255
O32   O     O_R   0.790730 0.342280 0.776690 -0.499269
O33   O     O_R   0.813700 0.475290 0.721160 -0.504237
O34   O     O_R   0.813700 0.475290 0.778840 -0.504250
O35   O     O_R   0.657720 0.448450 0.723310 -0.499344
O36   O     O_R   0.657720 0.448450 0.776690 -0.499342
O37   O     O_3   0.666667 0.333333 0.750000 -0.260366
O38   O     O_R   0.338410 0.524710 0.278840 -0.508142
O39   O     O_R   0.338410 0.524710 0.221160 -0.508133
O40   O     O_R   0.209270 0.551550 0.276690 -0.495172
O41   O     O_R   0.209270 0.551550 0.223310 -0.495171
O42   O     O_R   0.186300 0.661590 0.278840 -0.510973
O43   O     O_R   0.186300 0.661590 0.221160 -0.510988
O44   O     O_R   0.342280 0.790730 0.276690 -0.497177
O45   O     O_R   0.342280 0.790730 0.223310 -0.497177
O46   O     O_3   0.333333 0.666667 0.250000 -0.235339
O47   O     O_2   0.952183 0.413246 0.388258 -0.503692
O48   O     O_2   0.951983 0.413416 0.111757 -0.503645
O49   O     O_2   0.830527 0.334509 0.601869 -0.492961
O50   O     O_2   0.830334 0.334701 0.898143 -0.492989
Cl1   Cl    Cl    0.400875 0.115830 0.695055 -0.508541
Cl2   Cl    Cl    0.400825 0.115664 0.804914 -0.508573
Cl3   Cl    Cl    0.290987 0.798304 0.581633 -0.523975
Cl4   Cl    Cl    0.291320 0.798088 0.918353 -0.523949
Cl5   Cl    Cl    0.713308 0.735342 0.434492 -0.505359
Cl6   Cl    Cl    0.713274 0.735429 0.065503 -0.505366

loop_
_geom_bond_atom_site_label_1
_geom_bond_atom_site_label_2
_ccdc_geom_bond_type
C194  C196  A    
C63   C65   A    
C33   C45   S    
C185  C207  A    
C2    C202  S    
C39   C87   A    
Cr6   O35   S    
C164  H90   S    
C170  C176  A    
C99   N5    Am   
C171  C173  A    
C18   C210  A    
C54   O41   A    
C84   C86   A    
C4    C142  A    
C57   C59   A    
C40   H42   S    
C58   C60   A    
C105  C123  A    
C60   C62   A    
C61   C63   A    
C7    C203  A    
C12   C228  A    
Cr4   O27   S    
Cr2   O39   S    
C91   H7    S    
C122  C170  A    
C66   O6    D    
C50   C52   A    
C159  C161  A    
C2    O24   A    
C152  Cl2   S    
C46   C72   A    
C172  H38   S    
C74   H10   S    
C206  C214  A    
C151  Cl1   S    
C182  C192  A    
C49   C91   A    
C4    C208  A    
C67   N3    Am   
C213  C215  A    
C27   C221  A    
C183  C201  A    
C140  C144  A    
C8    C204  A    
C184  C202  A    
C25   C41   A    
C187  H49   S    
C26   C38   A    
C212  C220  A    
C193  C199  A    
C21   C29   A    
C19   H63   S    
C21   H69   S    
C64   C66   A    
C22   H70   S    
Cr2   O41   S    
C214  H60   S    
C92   C94   A    
Cr1   O23   S    
C71   H61   S    
C72   H62   S    
C20   C198  A    
C32   O30   A    
C126  C154  A    
C3    N1    S    
C120  O4    D    
C82   C84   A    
C14   C206  A    
C143  C173  A    
Cr6   O33   S    
C97   N1    Am   
C87   H87   S    
C135  C137  A    
C8    H74   S    
C177  C195  A    
C180  O20   D    
C154  H40   S    
C9    H77   S    
C186  C208  A    
Cr1   O2    S    
C10   H78   S    
C163  H89   S    
C3    C207  A    
C118  C168  A    
C156  C158  A    
C64   C94   A    
C99   C115  A    
C40   C88   A    
C110  H20   S    
C188  C202  A    
C159  C167  A    
C160  C168  A    
C223  N11   Am   
C127  C131  A    
C224  N12   Am   
C113  C161  A    
C206  C212  A    
C48   C52   A    
C28   C222  A    
C106  C124  A    
C133  C135  A    
C205  C211  A    
C75   O1    A    
C153  H39   S    
C218  C226  A    
C161  C165  A    
C113  C115  A    
C41   C89   A    
C188  H50   S    
C189  H51   S    
C45   C71   A    
C3    C141  A    
C38   C98   A    
C31   O29   A    
C133  H27   S    
C178  O16   D    
C179  C199  A    
C108  H18   S    
C29   H79   S    
C149  C151  A    
Cr3   O45   S    
C78   C80   A    
C98   N2    Am   
C105  H31   S    
C188  C190  A    
C32   C126  S    
C189  C191  A    
C176  H48   S    
C155  H45   S    
C125  C151  A    
C59   C67   A    
C10   C12   A    
C126  C152  A    
C194  C200  A    
C223  O21   D    
C116  C118  A    
C78   H14   S    
C2    O39   A    
C34   C46   S    
C108  C124  A    
C34   O34   A    
C47   C81   A    
C7    H73   S    
C21   C199  A    
C182  H68   S    
C81   C83   A    
C172  C174  A    
C186  H2    S    
C1    O38   A    
C175  H47   S    
C59   C61   A    
C181  H67   S    
C76   C124  S    
C104  C112  A    
C49   C51   A    
C216  H58   S    
C178  C196  A    
C5    C227  A    
C42   C90   A    
C160  C162  A    
C170  H36   S    
C180  C200  A    
C128  C134  A    
C218  C220  A    
C97   O47   D    
C27   H75   S    
Cr5   O31   S    
Cr3   O43   S    
C103  C105  A    
C167  H29   S    
C222  C224  A    
C168  H30   S    
Cr5   O37   S    
C99   O7    D    
C180  N10   Am   
Cr3   O44   S    
C8    C10   A    
C210  C212  A    
C191  N9    S    
C69   C79   A    
C79   N3    S    
C31   C125  S    
C144  C174  A    
C26   C42   A    
C25   C83   A    
C39   H41   S    
C73   C77   A    
C22   C30   A    
C227  H55   S    
C24   C28   A    
Cr6   O36   S    
C5    C203  A    
C114  C116  A    
C35   O35   A    
C33   O31   A    
C211  C219  A    
C111  N5    S    
C52   C62   A    
C177  O15   D    
C76   O45   A    
C117  H21   S    
C42   C120  A    
C187  C201  A    
C67   O49   D    
C82   C88   A    
Cr5   O29   S    
C56   C58   A    
C14   C16   A    
Cr6   O37   S    
C182  C184  A    
C145  O13   D    
C36   O26   A    
C44   C54   S    
Cr4   O28   S    
C113  C121  A    
C11   C227  A    
C28   H76   S    
C118  H22   S    
Cr2   O46   S    
C65   N3    Am   
C192  N10   S    
C217  C225  A    
C195  C197  A    
C225  O17   D    
C155  C157  A    
C17   C29   A    
C69   H81   S    
C121  C169  A    
C100  C116  A    
C107  C123  A    
C68   N4    Am   
C1    C201  S    
C104  C106  A    
C197  Cl5   S    
C198  Cl6   S    
C137  C139  A    
C11   N11   S    
C35   O25   A    
C22   C200  A    
C177  N9    Am   
C156  H46   S    
C17   C209  A    
C142  C164  A    
C114  C162  A    
C207  H23   S    
C30   H80   S    
C103  C111  A    
C183  H65   S    
C145  N7    Am   
C149  H25   S    
C162  C166  A    
Cr3   O42   S    
C171  H37   S    
C43   C53   S    
C130  C172  A    
C115  C117  A    
C6    C228  A    
C26   C84   A    
C190  H52   S    
C65   O5    D    
C153  C155  A    
C154  C156  A    
C77   C79   A    
C205  C213  A    
C107  C109  A    
Cr6   O34   S    
C12   N12   S    
C220  C222  A    
C228  H56   S    
C173  H43   S    
C106  H32   S    
C19   C197  A    
C13   C19   A    
C70   C80   A    
C80   N4    S    
C14   C20   A    
C148  N8    Am   
C144  C146  A    
C32   O28   A    
C181  C183  A    
C131  C139  A    
C24   C210  A    
C47   C51   A    
Cr1   O1    S    
C101  C121  A    
C5    H53   S    
C89   C95   A    
C130  C132  A    
C92   H8    S    
C6    C204  A    
C91   C93   A    
C34   O32   A    
C130  C166  A    
C119  O3    D    
Cr2   O38   S    
C169  C175  A    
C41   C119  A    
C90   C96   A    
C94   H12   S    
C81   C87   A    
C86   C96   A    
C178  N10   Am   
C196  C198  A    
C83   C85   A    
C53   O42   A    
C13   C205  A    
C23   H71   S    
C165  C175  A    
C88   H88   S    
C15   C17   A    
C190  C192  A    
C150  C158  A    
C148  O10   D    
C137  C147  A    
C66   N4    Am   
C127  C133  A    
C216  C218  A    
C179  N9    Am   
C147  O9    D    
C132  C140  A    
C215  H57   S    
C101  O11   D    
C107  H17   S    
C109  C111  A    
C62   C64   A    
C37   C39   A    
C38   C40   A    
C181  C191  A    
C100  N6    Am   
C117  C167  A    
C109  H19   S    
C48   C82   A    
C135  Cl3   S    
Cr1   O24   S    
C214  C216  A    
C24   H72   S    
C75   O44   A    
C15   C193  A    
C102  O12   D    
C60   C68   A    
C74   C78   A    
C76   O2    A    
C43   C185  A    
C100  O8    D    
C146  N8    Am   
C44   C164  A    
C77   H13   S    
C63   C93   A    
C102  C122  A    
C149  C157  A    
C184  H66   S    
C44   C186  A    
C43   C163  A    
C120  N2    Am   
C169  H35   S    
C157  N7    S    
C85   C95   A    
C89   H5    S    
C6    H54   S    
C51   C61   A    
C35   C203  S    
C95   H15   S    
C147  N7    Am   
C101  N5    Am   
C68   O50   D    
C75   C123  S    
C215  C217  A    
C136  Cl4   S    
C36   O36   A    
C143  C145  A    
C45   C73   A    
C69   C71   A    
C25   C37   A    
C31   O27   A    
C108  C110  A    
C193  C195  A    
C20   H64   S    
Cr5   O30   S    
C142  H4    S    
C18   C30   A    
C224  O22   D    
C33   O33   A    
C112  N6    S    
C37   C97   A    
C150  H26   S    
C134  H28   S    
C139  C143  A    
C128  C132  A    
C4    N2    S    
C125  C153  A    
C110  C112  A    
C208  H24   S    
C49   C85   A    
C16   C194  A    
C136  C138  A    
C138  C148  A    
Cr3   O46   S    
C134  C136  A    
C23   C209  A    
C119  N1    Am   
C226  O18   D    
C58   H84   S    
C54   O43   A    
C219  C221  A    
C73   H9    S    
C70   H82   S    
C102  N6    Am   
C53   O40   A    
Cr2   O40   S    
C225  N11   Am   
C57   H83   S    
C9    C11   A    
C93   H11   S    
C98   O48   D    
C50   C92   A    
Cr4   O25   S    
C174  H44   S    
C141  C163  A    
C23   C27   A    
C13   C15   A    
C179  O19   D    
C150  C152  A    
C127  C159  A    
C46   C74   A    
C128  C160  A    
C47   C55   A    
C48   C56   A    
C141  H3    S    
C185  H1    S    
C1    O23   A    
C129  C171  A    
C104  H34   S    
C55   H85   S    
C56   H86   S    
C138  C140  A    
C217  C219  A    
C158  N8    S    
C166  C176  A    
C90   H6    S    
C96   H16   S    
C55   C57   A    
Cr1   O46   S    
C213  H59   S    
C221  C223  A    
C226  N12   Am   
Cr4   O26   S    
C209  C211  A    
Cr5   O32   S    
C146  O14   D    
C187  C189  A    
C50   C86   A    
C103  H33   S    
C114  C122  A    
C7    C9    A    
C16   C18   A    
Cr4   O37   S    
C129  C165  A    
C70   C72   A    
C36   C204  S    
C129  C131  A    
