data_mof_unit_284.cif
_audit_creation_date              2013-03-05T15:41:01-0500
_audit_creation_method            fapswitch 2.2
_symmetry_space_group_name_H-M    P1
_symmetry_Int_Tables_number       1
_space_group_crystal_system       triclinic
_cell_length_a                    28.164966
_cell_length_b                    18.376119
_cell_length_c                    16.901324
_cell_angle_alpha                 90.000069
_cell_angle_beta                  61.307718
_cell_angle_gamma                 89.48992
_cell_volume                      7673.003142

loop_
_atom_site_label
_atom_site_type_symbol
_atom_site_description
_atom_site_fract_x
_atom_site_fract_y
_atom_site_fract_z
_atom_type_partial_charge
O1    O     O_R   0.746490 0.236330 0.638080 -0.641463
O2    O     O_R   0.253510 0.763670 0.361920 -0.641520
O3    O     O_R   0.253510 0.236330 0.361920 -0.631214
O4    O     O_R   0.746490 0.763670 0.638080 -0.630093
O5    O     O_R   0.246490 0.736330 0.638080 -0.625921
O6    O     O_R   0.753510 0.263670 0.361920 -0.629756
O7    O     O_R   0.753510 0.736330 0.361920 -0.645142
O8    O     O_R   0.246490 0.263670 0.638080 -0.636024
O9    O     O_R   0.674170 0.186160 0.516270 -0.625041
O10   O     O_R   0.325830 0.813840 0.483730 -0.644874
O11   O     O_R   0.325830 0.186160 0.483730 -0.610795
O12   O     O_R   0.674170 0.813840 0.516270 -0.620451
O13   O     O_R   0.174170 0.686160 0.516270 -0.615928
O14   O     O_R   0.825830 0.313840 0.483730 -0.621457
O15   O     O_R   0.825830 0.686160 0.483730 -0.607500
O16   O     O_R   0.174170 0.313840 0.516270 -0.631938
O17   O     O_R   0.739960 0.127620 0.525000 -0.634401
O18   O     O_R   0.260040 0.872380 0.475000 -0.637285
O19   O     O_R   0.260040 0.127620 0.475000 -0.619428
O20   O     O_R   0.739960 0.872380 0.525000 -0.625098
O21   O     O_R   0.239960 0.627620 0.525000 -0.621645
O22   O     O_R   0.760040 0.372380 0.475000 -0.635496
O23   O     O_R   0.760040 0.627620 0.475000 -0.628419
O24   O     O_R   0.239960 0.372380 0.525000 -0.634077
O25   O     O_R   0.680700 0.294870 0.629350 -0.617580
O26   O     O_R   0.319300 0.705130 0.370650 -0.618513
O27   O     O_R   0.319300 0.294870 0.370650 -0.615975
O28   O     O_R   0.680700 0.705130 0.629350 -0.607918
O29   O     O_R   0.180700 0.794870 0.629350 -0.615379
O30   O     O_R   0.819300 0.205130 0.370650 -0.613478
O31   O     O_R   0.819300 0.794870 0.370650 -0.609017
O32   O     O_R   0.180700 0.205130 0.629350 -0.612064
C1    C     C_R   0.700130 0.264050 0.677498 0.898843
C2    C     C_R   0.299742 0.735416 0.322621 0.884945
C3    C     C_R   0.293686 0.277641 0.327166 0.899665
C4    C     C_R   0.701152 0.733707 0.677087 0.886853
C5    C     C_R   0.207144 0.779292 0.671946 0.913503
C6    C     C_R   0.799617 0.235394 0.322524 0.898965
C7    C     C_R   0.799114 0.765757 0.322714 0.887137
C8    C     C_R   0.201049 0.233781 0.677035 0.893597
C9    C     C_R   0.695423 0.127460 0.521307 0.900409
C10   C     C_R   0.308582 0.870535 0.464934 0.870433
C11   C     C_R   0.309208 0.129491 0.462773 0.910452
C12   C     C_R   0.690530 0.870148 0.537607 0.887492
C13   C     C_R   0.196499 0.627273 0.518310 0.922821
C14   C     C_R   0.803024 0.372691 0.483201 0.908369
C15   C     C_R   0.809324 0.629813 0.462010 0.896850
C16   C     C_R   0.190517 0.370002 0.538623 0.873381
Zn1   Zn    Zn3+2 0.792340 0.208750 0.507670 0.982070
Zn2   Zn    Zn3+2 0.207660 0.791250 0.492330 0.988549
Zn3   Zn    Zn3+2 0.207660 0.208750 0.492330 1.000208
Zn4   Zn    Zn3+2 0.792340 0.791250 0.507670 1.010934
Zn5   Zn    Zn3+2 0.292340 0.708750 0.507670 0.991172
Zn6   Zn    Zn3+2 0.707660 0.291250 0.492330 0.993287
Zn7   Zn    Zn3+2 0.707660 0.708750 0.492330 0.982381
Zn8   Zn    Zn3+2 0.292340 0.291250 0.507670 0.998176
H1    H     H_    0.983360 0.283314 0.668403 0.158886
H2    H     H_    0.008819 0.724537 0.355093 0.199846
H3    H     H_    0.902049 0.288775 0.655177 0.154621
H4    H     H_    0.088115 0.721343 0.375344 0.205231
H5    H     H_    0.516046 0.754947 0.568035 0.183637
H6    H     H_    0.497444 0.240336 0.388566 0.184369
H7    H     H_    0.454815 0.751295 0.504280 0.164764
H8    H     H_    0.576555 0.235766 0.410555 0.196553
C17   C     C_R   0.566475 0.123405 0.452772 0.026851
C18   C     C_R   0.456729 0.867467 0.480285 0.039597
C19   C     C_R   0.474968 0.127472 0.426149 0.035694
C20   C     C_R   0.531493 0.871030 0.547304 0.046808
C21   C     C_R   0.072862 0.614737 0.436118 0.030473
C22   C     C_R   0.922434 0.388499 0.577093 0.065715
C23   C     C_R   0.978575 0.619167 0.416803 0.033065
C24   C     C_R   0.017907 0.383148 0.594182 0.061109
C25   C     C_R   0.552304 0.187391 0.423514 -0.097832
C26   C     C_R   0.471534 0.803135 0.508420 -0.188698
C27   C     C_R   0.506864 0.189783 0.411170 -0.125956
C28   C     C_R   0.506411 0.805443 0.545617 -0.158514
C29   C     C_R   0.061565 0.674905 0.396678 -0.094122
C30   C     C_R   0.931225 0.331914 0.624807 -0.177802
C31   C     C_R   0.015478 0.676972 0.386382 -0.128253
C32   C     C_R   0.978335 0.328808 0.632326 -0.181053
C33   C     C_R   0.488402 0.063795 0.458397 0.038630
C34   C     C_R   0.518302 0.934847 0.515322 0.031203
C35   C     C_R   0.532769 0.062846 0.475524 0.034681
C36   C     C_R   0.477869 0.933964 0.488695 0.031235
C37   C     C_R   0.988149 0.560192 0.461525 0.036868
C38   C     C_R   0.008753 0.441126 0.547708 0.029500
C39   C     C_R   0.034999 0.558438 0.472105 0.034731
C40   C     C_R   0.961635 0.443037 0.537628 0.030832
C41   C     C_R   0.951948 0.501919 0.493173 -0.040884
C42   C     C_R   0.045493 0.498765 0.514393 -0.042164
C43   C     C_R   0.461299 0.998937 0.464225 -0.043393
C44   C     C_R   0.546648 0.999075 0.506814 -0.041147
C45   C     C_R   0.869984 0.443484 0.511196 0.006586
C46   C     C_R   0.128110 0.556893 0.494078 0.008143
C47   C     C_R   0.104986 0.436797 0.562490 0.019017
C48   C     C_R   0.893851 0.563072 0.441557 0.029651
C49   C     C_R   0.394260 0.932102 0.442091 0.007187
C50   C     C_R   0.624732 0.060044 0.500647 0.007677
C51   C     C_R   0.605593 0.934983 0.554671 0.021891
C52   C     C_R   0.397119 0.064673 0.430701 0.022106
C53   C     C_R   0.829922 0.439463 0.482795 -0.105907
C54   C     C_R   0.169178 0.560500 0.520022 -0.118683
C55   C     C_R   0.156709 0.435429 0.559205 -0.113693
C56   C     C_R   0.842842 0.564255 0.442626 -0.123517
C57   C     C_R   0.343448 0.933903 0.441989 -0.103260
C58   C     C_R   0.666694 0.061513 0.524822 -0.105430
C59   C     C_R   0.655937 0.934864 0.557123 -0.118242
C60   C     C_R   0.344512 0.064634 0.437403 -0.121824
C61   C     C_R   0.816677 0.500086 0.449516 -0.282087
C62   C     C_R   0.183080 0.499608 0.551811 -0.276755
C63   C     C_R   0.320484 0.999458 0.437392 -0.285084
C64   C     C_R   0.680844 0.999542 0.554417 -0.285971
H9    H     H_    0.782383 0.499169 0.436883 0.194191
H10   H     H_    0.217993 0.500411 0.562785 0.196822
H11   H     H_    0.280844 0.999931 0.441583 0.198310
H12   H     H_    0.715386 0.000105 0.566413 0.191893
C65   C     C_R   0.905794 0.502530 0.480950 0.044411
C66   C     C_R   0.092355 0.497718 0.524670 0.044635
C67   C     C_R   0.417374 0.998671 0.446069 0.040508
C68   C     C_R   0.591411 0.998533 0.523110 0.045361
C69   C     C_R   0.065736 0.381411 0.602618 -0.049428
C70   C     C_R   0.932509 0.619254 0.403796 -0.043318
C71   C     C_R   0.874483 0.392905 0.570527 -0.046571
C72   C     C_R   0.121910 0.609160 0.438307 -0.060299
C73   C     C_R   0.570696 0.873885 0.576958 -0.054368
C74   C     C_R   0.430922 0.126731 0.407848 -0.044463
C75   C     C_R   0.422515 0.867037 0.441341 -0.046628
C76   C     C_R   0.616265 0.116375 0.451488 -0.053245
C77   C     C_R   0.707404 0.243138 0.968388 -0.012854
C78   C     C_R   0.293761 0.759604 0.031777 -0.012650
C79   C     C_R   0.271795 0.283787 0.052935 -0.012081
C80   C     C_R   0.735067 0.708531 0.938208 -0.014129
C81   C     C_R   0.232293 0.790204 0.942983 -0.014462
C82   C     C_R   0.767715 0.213306 0.059055 -0.014678
C83   C     C_R   0.794579 0.740447 0.029585 -0.011134
C84   C     C_R   0.210802 0.251699 0.964274 -0.012857
C85   C     C_R   0.749347 0.190454 0.933212 0.097655
C86   C     C_R   0.242530 0.794092 0.078256 0.100444
C87   C     C_R   0.217235 0.261181 0.103137 0.086880
C88   C     C_R   0.775460 0.762421 0.904783 0.087053
C89   C     C_R   0.287396 0.768501 0.892269 0.086284
C90   C     C_R   0.727728 0.268588 0.091362 0.090755
C91   C     C_R   0.752814 0.688343 0.065135 0.098303
C92   C     C_R   0.261359 0.286905 0.917967 0.091467
C93   C     C_R   0.774221 0.168262 0.985993 -0.068368
C94   C     C_R   0.208675 0.799171 0.037349 -0.071807
C95   C     C_R   0.189231 0.235485 0.057111 -0.072680
C96   C     C_R   0.810530 0.770045 0.943176 -0.064100
C97   C     C_R   0.316156 0.743900 0.938250 -0.077397
C98   C     C_R   0.692141 0.275219 0.053709 -0.064339
C99   C     C_R   0.728001 0.665310 0.012623 -0.064426
C100  C     C_R   0.295382 0.292764 0.958538 -0.072938
C101  C     C_R   0.634491 0.309756 0.958986 0.000235
C102  C     C_R   0.369297 0.697082 0.038588 0.008425
C103  C     C_R   0.356158 0.323197 0.049756 0.014396
C104  C     C_R   0.663423 0.641757 0.926649 0.003149
C105  C     C_R   0.146202 0.825865 0.948261 0.012198
C106  C     C_R   0.837683 0.143974 0.073387 -0.001621
C107  C     C_R   0.865607 0.809756 0.040597 0.004737
C108  C     C_R   0.134571 0.191228 0.958943 0.014320
C109  C     C_R   0.611674 0.337827 0.905536 -0.102935
C110  C     C_R   0.390576 0.665474 0.092869 -0.118333
C111  C     C_R   0.383606 0.345040 0.098561 -0.115314
C112  C     C_R   0.627391 0.636239 0.889444 -0.106783
C113  C     C_R   0.117421 0.845573 0.900826 -0.112181
C114  C     C_R   0.873514 0.137879 0.110470 -0.104853
C115  C     C_R   0.887436 0.839261 0.094909 -0.107721
C116  C     C_R   0.111968 0.161899 0.905493 -0.119808
C117  C     C_R   0.631265 0.315774 0.817322 -0.290983
C118  C     C_R   0.369791 0.685438 0.182196 -0.283540
C119  C     C_R   0.363020 0.326630 0.187670 -0.279078
C120  C     C_R   0.636956 0.674387 0.813232 -0.283833
C121  C     C_R   0.137691 0.826789 0.812043 -0.287189
C122  C     C_R   0.864745 0.177028 0.185684 -0.294729
C123  C     C_R   0.866863 0.818799 0.183755 -0.274910
C124  C     C_R   0.132383 0.182223 0.816545 -0.273895
H13   H     H_    0.614072 0.339147 0.777650 0.197714
H14   H     H_    0.386411 0.660996 0.222142 0.199715
H15   H     H_    0.386375 0.337365 0.221991 0.202552
H16   H     H_    0.612127 0.664975 0.781204 0.201397
H17   H     H_    0.113334 0.835739 0.778910 0.195950
H18   H     H_    0.889506 0.166839 0.217827 0.195666
H19   H     H_    0.883089 0.843113 0.224102 0.201057
H20   H     H_    0.115271 0.159085 0.776887 0.199174
C125  C     C_R   0.675215 0.269354 0.776763 -0.111130
C126  C     C_R   0.325171 0.730782 0.223452 -0.111514
C127  C     C_R   0.311484 0.299475 0.234739 -0.116926
C128  C     C_R   0.680437 0.720118 0.773631 -0.120514
C129  C     C_R   0.189952 0.801553 0.763800 -0.119517
C130  C     C_R   0.821500 0.223960 0.224980 -0.121698
C131  C     C_R   0.823679 0.771978 0.223670 -0.116888
C132  C     C_R   0.176708 0.227128 0.775579 -0.114897
C133  C     C_R   0.698562 0.238641 0.829356 0.101775
C134  C     C_R   0.301449 0.761080 0.171601 0.092865
C135  C     C_R   0.278207 0.293484 0.192564 0.073409
C136  C     C_R   0.709411 0.739250 0.821162 0.081720
C137  C     C_R   0.224247 0.797029 0.804538 0.076012
C138  C     C_R   0.793405 0.244713 0.176038 0.095415
C139  C     C_R   0.801425 0.740184 0.170451 0.083300
C140  C     C_R   0.201170 0.255600 0.826689 0.077938
C141  C     C_R   0.680197 0.263775 0.918749 0.076671
C142  C     C_R   0.321746 0.739583 0.080420 0.075755
C143  C     C_R   0.302246 0.299392 0.098111 0.073830
C144  C     C_R   0.702357 0.696962 0.895900 0.073485
C145  C     C_R   0.200849 0.803823 0.898802 0.074500
C146  C     C_R   0.800076 0.201427 0.101915 0.078532
C147  C     C_R   0.820493 0.763473 0.080365 0.074184
C148  C     C_R   0.182129 0.232728 0.916693 0.073764
C149  C     C_R   0.612045 0.323541 0.052399 -0.230500
C150  C     C_R   0.393075 0.686470 0.944557 -0.239764
C151  C     C_R   0.380895 0.323203 0.955020 -0.229550
C152  C     C_R   0.664150 0.591411 0.989026 -0.238566
C153  C     C_R   0.121834 0.825553 0.042820 -0.229996
C154  C     C_R   0.836123 0.092157 0.013159 -0.239498
C155  C     C_R   0.888602 0.821930 0.946824 -0.223475
C156  C     C_R   0.112107 0.179642 0.052559 -0.245183
C157  C     C_R   0.640652 0.309293 0.099168 0.328998
C158  C     C_R   0.366296 0.704994 0.895614 0.294729
C159  C     C_R   0.351910 0.306952 0.909029 0.287998
C160  C     C_R   0.696535 0.601279 0.030377 0.287561
C161  C     C_R   0.151772 0.810500 0.087462 0.309092
C162  C     C_R   0.804473 0.102655 0.970686 0.286083
C163  C     C_R   0.861526 0.804307 0.898403 0.312900
C164  C     C_R   0.140018 0.196108 0.099913 0.283878
C165  C     C_R   0.739846 0.184832 0.796621 -0.189524
C166  C     C_R   0.258393 0.812310 0.206284 -0.179827
C167  C     C_R   0.221628 0.285367 0.241258 -0.180586
C168  C     C_R   0.744970 0.798574 0.797047 -0.174557
C169  C     C_R   0.280967 0.788978 0.754800 -0.184920
C170  C     C_R   0.757840 0.304873 0.199788 -0.176411
C171  C     C_R   0.761069 0.686125 0.202797 -0.197868
C172  C     C_R   0.243193 0.307320 0.792886 -0.176561
C173  C     C_R   0.765527 0.163108 0.845983 -0.138700
C174  C     C_R   0.228288 0.826112 0.162241 -0.122352
C175  C     C_R   0.191842 0.269890 0.197420 -0.124812
C176  C     C_R   0.777289 0.809779 0.837806 -0.082204
C177  C     C_R   0.311829 0.775693 0.797802 -0.123118
C178  C     C_R   0.725927 0.316746 0.157961 -0.074248
C179  C     C_R   0.736273 0.662994 0.152985 -0.134345
C180  C     C_R   0.273900 0.320336 0.835768 -0.118453
H21   H     H_    0.570575 0.341245 0.092438 0.203925
H22   H     H_    0.432782 0.662326 0.906659 0.207284
H23   H     H_    0.424092 0.330810 0.915352 0.197485
H24   H     H_    0.642915 0.540528 0.001135 0.211416
H25   H     H_    0.078352 0.830886 0.083065 0.197923
H26   H     H_    0.856248 0.040021 0.003576 0.209115
H27   H     H_    0.929469 0.840957 0.907730 0.204271
H28   H     H_    0.072527 0.156788 0.091752 0.210252
H29   H     H_    0.752587 0.156673 0.733643 0.180419
H30   H     H_    0.247014 0.843088 0.267133 0.178345
H31   H     H_    0.199138 0.293533 0.313391 0.177651
H32   H     H_    0.747017 0.838574 0.748655 0.172552
H33   H     H_    0.302616 0.795283 0.682386 0.173950
H34   H     H_    0.754921 0.343942 0.249823 0.170659
H35   H     H_    0.748330 0.658373 0.265759 0.183372
H36   H     H_    0.252740 0.340189 0.734459 0.179191
H37   H     H_    0.799553 0.126173 0.812961 0.179216
H38   H     H_    0.194430 0.863721 0.193589 0.178301
H39   H     H_    0.148424 0.267384 0.238483 0.179220
H40   H     H_    0.802642 0.857402 0.818059 0.205671
H41   H     H_    0.355200 0.773649 0.755773 0.180555
H42   H     H_    0.700283 0.364770 0.177535 0.210122
H43   H     H_    0.702547 0.626595 0.186360 0.182182
H44   H     H_    0.306359 0.359201 0.805527 0.180029
O33   O     O_R   0.062020 0.072840 0.007170 -0.616184
O34   O     O_R   0.937980 0.927160 0.992830 -0.630444
O35   O     O_R   0.937980 0.072840 0.992830 -0.621764
O36   O     O_R   0.062020 0.927160 0.007170 -0.611263
O37   O     O_R   0.562020 0.572840 0.007170 -0.622375
O38   O     O_R   0.437980 0.427160 0.992830 -0.610988
O39   O     O_R   0.437980 0.572840 0.992830 -0.612784
O40   O     O_R   0.562020 0.427160 0.007170 -0.629930
O41   O     O_R   0.947860 0.073950 0.109290 -0.621981
O42   O     O_R   0.052140 0.926050 0.890710 -0.611735
O43   O     O_R   0.052140 0.073950 0.890710 -0.607683
O44   O     O_R   0.947860 0.926050 0.109290 -0.619285
O45   O     O_R   0.447860 0.573950 0.109290 -0.607526
O46   O     O_R   0.552140 0.426050 0.890710 -0.620821
O47   O     O_R   0.552140 0.573950 0.890710 -0.620885
O48   O     O_R   0.447860 0.426050 0.109290 -0.611832
C181  C     C_R   0.072115 0.102985 0.936384 0.916114
C182  C     C_R   0.927318 0.897781 0.064170 0.872815
C183  C     C_R   0.920644 0.091553 0.071173 0.913167
C184  C     C_R   0.072335 0.897069 0.936326 0.895093
C185  C     C_R   0.579581 0.591194 0.928783 0.907645
C186  C     C_R   0.427782 0.397211 0.063680 0.893196
C187  C     C_R   0.429171 0.604384 0.062473 0.917966
C188  C     C_R   0.572206 0.397226 0.936221 0.877737
Zn9   Zn    Zn3+2 0.505960 0.500000 0.080520 1.018849
Zn10  Zn    Zn3+2 0.494040 0.500000 0.919480 1.024273
Zn11  Zn    Zn3+2 0.005960 0.000000 0.080520 1.021067
Zn12  Zn    Zn3+2 0.994040 0.000000 0.919480 1.016180
C189  C     C_1   0.070577 0.329308 0.662921 0.184010
N1    N     N_1   0.073998 0.287940 0.711603 -0.207840
C190  C     C_1   0.929305 0.670446 0.341033 0.188356
N2    N     N_1   0.927151 0.711074 0.290505 -0.194294
C191  C     C_1   0.825808 0.364185 0.644132 0.189925
N3    N     N_1   0.787174 0.343232 0.705498 -0.197613
C192  C     C_1   0.169533 0.638495 0.362774 0.220789
N4    N     N_1   0.207260 0.660146 0.300261 -0.160895
C193  C     C_1   0.569498 0.819509 0.640120 0.209763
N5    N     N_1   0.568158 0.776253 0.690914 -0.184562
C194  C     C_1   0.428138 0.181776 0.348596 0.205318
N6    N     N_1   0.426582 0.225465 0.300570 -0.191316
C195  C     C_1   0.429386 0.807929 0.379568 0.217187
N7    N     N_1   0.435140 0.760906 0.330083 -0.197572
C196  C     C_1   0.662374 0.144417 0.372624 0.235965
N8    N     N_1   0.698812 0.165093 0.307607 -0.169500
N9    N     N_R   0.613031 0.319149 0.195297 0.193156
O49   O     O_R   0.578906 0.372865 0.232061 -0.374154
O50   O     O_R   0.615327 0.268135 0.246638 -0.441428
N10   N     N_R   0.387489 0.674235 0.806885 0.188826
O51   O     O_R   0.438984 0.678181 0.750246 -0.420465
O52   O     O_R   0.357563 0.631085 0.788714 -0.373931
N11   N     N_R   0.382094 0.296541 0.812971 0.194466
O53   O     O_R   0.422978 0.338148 0.764249 -0.387049
O54   O     O_R   0.374338 0.238800 0.776200 -0.373945
N12   N     N_R   0.702683 0.540960 0.079021 0.182564
O55   O     O_R   0.661696 0.499428 0.127471 -0.395255
O56   O     O_R   0.750731 0.520839 0.064063 -0.398243
N13   N     N_R   0.122592 0.794210 0.181753 0.184681
O57   O     O_R   0.079263 0.831212 0.235119 -0.421731
O58   O     O_R   0.133666 0.734176 0.210516 -0.425646
N14   N     N_R   0.797606 0.041800 0.923756 0.184342
O59   O     O_R   0.838018 0.997808 0.876939 -0.394657
O60   O     O_R   0.749325 0.023673 0.939291 -0.395053
N15   N     N_R   0.889989 0.812451 0.801953 0.196602
O61   O     O_R   0.922195 0.867203 0.765575 -0.362170
O62   O     O_R   0.890006 0.760003 0.750171 -0.382333
N16   N     N_R   0.121099 0.163125 0.186835 0.192472
O63   O     O_R   0.069638 0.163121 0.244463 -0.403365
O64   O     O_R   0.153804 0.122451 0.202293 -0.372639

loop_
_geom_bond_atom_site_label_1
_geom_bond_atom_site_label_2
_geom_bond_distance
_ccdc_geom_bond_type
O4    C4    1.254010 A    
C155  H27   1.077301 S    
O5    C5    1.246716 A    
C138  C146  1.417317 A    
C59   C64   1.375070 A    
C23   C70   1.416170 A    
H1    C32   1.082349 S    
O7    Zn7   2.015230 S    
O31   Zn4   2.063111 S    
C179  H43   1.079200 S    
O8    Zn8   2.015230 S    
C136  C168  1.408919 A    
O33   C181  1.222788 A    
C193  N5    1.157426 T    
C106  C114  1.424469 A    
C112  C185  1.449364 S    
C118  H14   1.084604 S    
C105  C113  1.431714 A    
C167  H31   1.080212 S    
C38   C40   1.416936 A    
C135  C143  1.407878 A    
C133  C141  1.417359 A    
O30   C6    1.306027 A    
C166  H30   1.077296 S    
C2    C126  1.475035 S    
C139  C171  1.414601 A    
C154  C162  1.399456 A    
O20   C12   1.304408 A    
C74   C194  1.451273 S    
N14   O59   1.301511 A    
C6    C130  1.471057 S    
C36   C43   1.410591 A    
C136  C144  1.414471 A    
C78   C142  1.431637 A    
C49   C57   1.432027 A    
O2    C2    1.250507 A    
C91   C99   1.433910 A    
C140  C148  1.413839 A    
C25   C27   1.392398 A    
O6    Zn6   2.009438 S    
C101  C141  1.404849 A    
C29   C31   1.390204 A    
C114  C122  1.374729 A    
C52   C60   1.430732 A    
N16   O63   1.301486 A    
C91   C179  1.406504 A    
C105  C145  1.408996 A    
C150  H22   1.077567 S    
C38   C42   1.403462 A    
C45   C53   1.424994 A    
C94   C161  1.421231 A    
C152  C160  1.402989 A    
O27   C3    1.293819 A    
C101  C109  1.430637 A    
C4    C128  1.467571 S    
C157  N9    1.435808 S    
C156  C164  1.399457 A    
C7    C131  1.477595 S    
C194  N6    1.157088 T    
C8    C132  1.471064 S    
C50   C68   1.406890 A    
C72   C192  1.445043 S    
N16   O64   1.301612 A    
H2    C31   1.082193 S    
O30   Zn1   2.062675 S    
C34   C36   1.411409 A    
C48   C56   1.428061 A    
C87   C175  1.407140 A    
H6    C27   1.082716 S    
C156  H28   1.075697 S    
C149  H21   1.078095 S    
C78   C86   1.412836 A    
O47   C185  1.262426 A    
C123  H19   1.084602 S    
C129  C137  1.432179 A    
C124  H20   1.084515 S    
C15   C56   1.460333 S    
C45   C71   1.416111 A    
O23   Zn7   2.007688 S    
H7    C26   1.083397 S    
O24   Zn8   2.007688 S    
O9    C9    1.251613 A    
O48   Zn9   2.009082 S    
C50   C58   1.424313 A    
C60   C63   1.380942 A    
C135  C167  1.408505 A    
C149  C157  1.396545 A    
C133  C165  1.413364 A    
C102  C150  1.409943 A    
O13   C13   1.255547 A    
C90   C98   1.426467 A    
O44   C182  1.270890 A    
C107  C115  1.436111 A    
C11   C60   1.470547 S    
C108  C116  1.438810 A    
C13   C54   1.447060 S    
C77   C85   1.411217 A    
C40   C41   1.414669 A    
C46   C54   1.422302 A    
O12   C12   1.257410 A    
N13   O57   1.301330 A    
O33   Zn11  1.994900 S    
O7    C7    1.255552 A    
O34   Zn12  1.994900 S    
O9    Zn6   2.109200 S    
O8    C8    1.255621 A    
O42   Zn12  1.989277 S    
C95   C164  1.422378 A    
C108  C156  1.410761 A    
C69   C189  1.450928 S    
C21   C29   1.401952 A    
O16   Zn3   2.093766 S    
C109  C117  1.377543 A    
C122  H18   1.085365 S    
C23   C31   1.406936 A    
O22   Zn6   2.027100 S    
C26   C28   1.398448 A    
C55   C62   1.372813 A    
C52   C74   1.422089 A    
O35   Zn12  1.975944 S    
O43   Zn12  2.009081 S    
O18   C10   1.294264 A    
C30   C32   1.393032 A    
C116  C181  1.470884 S    
O45   Zn9   1.989275 S    
C18   C26   1.406830 A    
N10   O51   1.301496 A    
C92   C180  1.401773 A    
C159  N11   1.437685 S    
N12   O56   1.301753 A    
O2    Zn2   2.009438 S    
H8    C25   1.082535 S    
O6    C6    1.247971 A    
C62   H10   1.084888 S    
C77   C141  1.430725 A    
O34   C182  1.220925 A    
C83   C91   1.415228 A    
C111  C186  1.460014 S    
C113  C184  1.454288 S    
C119  H15   1.084804 S    
C71   C191  1.442518 S    
C45   C65   1.407239 A    
C114  C183  1.435694 S    
C180  H44   1.081690 S    
C103  C143  1.408940 A    
H3    C30   1.083391 S    
C117  H13   1.084711 S    
C33   C35   1.411571 A    
C47   C55   1.430955 A    
O21   C13   1.282266 A    
N9    O50   1.299522 A    
H5    C28   1.082822 S    
C14   C53   1.446072 S    
C176  H40   1.081377 S    
C107  C155  1.413615 A    
C177  H41   1.078950 S    
O24   C16   1.298975 A    
C48   C65   1.415105 A    
O17   Zn1   2.027100 S    
N15   O62   1.301702 A    
C132  C140  1.439633 A    
C103  C111  1.434240 A    
C16   C55   1.461085 S    
C49   C67   1.407460 A    
O37   Zn9   1.994900 S    
C189  N1    1.157128 T    
O40   Zn9   1.975946 S    
C108  C148  1.409044 A    
O3    C3    1.256510 A    
C52   C67   1.412060 A    
C153  H25   1.081707 S    
C175  H39   1.079488 S    
C41   C65   1.410748 A    
C19   C33   1.414051 A    
C43   C67   1.410441 A    
C112  C120  1.375992 A    
C19   C27   1.407880 A    
C64   H12   1.085016 S    
C111  C119  1.372538 A    
C83   C147  1.433634 A    
C12   C59   1.463924 S    
C116  C124  1.379825 A    
C126  C134  1.442222 A    
C137  C169  1.409574 A    
C106  C154  1.410151 A    
C151  C159  1.404806 A    
C166  C174  1.392698 A    
C20   C34   1.410862 A    
O23   C15   1.298075 A    
C44   C68   1.413726 A    
C24   C32   1.408831 A    
C46   C66   1.408340 A    
C47   C69   1.420583 A    
C86   C94   1.423848 A    
C98   C157  1.413984 A    
C115  C123  1.378548 A    
O43   C181  1.272571 A    
O48   C186  1.272300 A    
O12   Zn7   2.093766 S    
C79   C87   1.418899 A    
O11   Zn8   2.093766 S    
O13   Zn2   2.109200 S    
N14   O60   1.301655 A    
C20   C73   1.416144 A    
O25   C1    1.305576 A    
C24   C69   1.421154 A    
O10   C10   1.249603 A    
C137  C145  1.406597 A    
O14   C14   1.255125 A    
O45   C187  1.269110 A    
O46   C188  1.266375 A    
C42   C66   1.411494 A    
C85   C93   1.431038 A    
C96   C163  1.415794 A    
C158  N10   1.434986 S    
C82   C146  1.426009 A    
C104  C152  1.410036 A    
C53   C61   1.375006 A    
C134  C142  1.416976 A    
C100  C159  1.425174 A    
C34   C44   1.399162 A    
O10   Zn5   2.109200 S    
O44   Zn11  2.009082 S    
C153  C161  1.401239 A    
C165  H29   1.076768 S    
C79   C143  1.426160 A    
C21   C39   1.405094 A    
C109  C188  1.456341 S    
C110  C187  1.465545 S    
C120  H16   1.085152 S    
C50   C76   1.415825 A    
C57   C63   1.381987 A    
C121  H17   1.085408 S    
N11   O53   1.301456 A    
C88   C96   1.426260 A    
C79   C100  1.413584 A    
C102  C142  1.405575 A    
O19   C11   1.299111 A    
O46   Zn10  1.989277 S    
C80   C144  1.428741 A    
C9    C58   1.448504 S    
C89   C97   1.436109 A    
C196  N8    1.152894 T    
C106  C146  1.399549 A    
C17   C76   1.396887 A    
C151  H23   1.081235 S    
O25   Zn6   2.062675 S    
C163  N15   1.438644 S    
C19   C74   1.415481 A    
C190  N2    1.157295 T    
C84   C148  1.431447 A    
O3    Zn3   2.015230 S    
O27   Zn8   2.063111 S    
C93   C162  1.420032 A    
C21   C72   1.402413 A    
C192  N4    1.154639 T    
O32   Zn3   2.063111 S    
C82   C90   1.409857 A    
C110  C118  1.379912 A    
O35   C183  1.219067 A    
O47   Zn10  2.009081 S    
C118  C126  1.378321 A    
O15   Zn4   2.093766 S    
O36   Zn11  1.975946 S    
C122  C130  1.368567 A    
C162  N14   1.438136 S    
O22   C14   1.283029 A    
O36   C184  1.219403 A    
C86   C174  1.403955 A    
C20   C28   1.409600 A    
C130  C138  1.441856 A    
O37   C185  1.219582 A    
C90   C178  1.413181 A    
C82   C93   1.422540 A    
C37   C41   1.402901 A    
C170  H34   1.081435 S    
C102  C110  1.435261 A    
O38   Zn10  1.994900 S    
C24   C38   1.417081 A    
O39   C187  1.224757 A    
C80   C88   1.413170 A    
C51   C59   1.438297 A    
C81   C89   1.419149 A    
C48   C70   1.418248 A    
C165  C173  1.397451 A    
C134  C166  1.413337 A    
N15   O61   1.301489 A    
C84   C92   1.415968 A    
C101  C149  1.412520 A    
C171  H35   1.076032 S    
C54   C62   1.374129 A    
N10   O52   1.301529 A    
C97   C158  1.424632 A    
C10   C57   1.457869 S    
C124  C132  1.381018 A    
C117  C125  1.377053 A    
C33   C43   1.398901 A    
O41   Zn11  1.989275 S    
O28   C4    1.307739 A    
C3    C127  1.450584 S    
C195  N7    1.157489 T    
C39   C42   1.413382 A    
O29   C5    1.290746 A    
C88   C176  1.409326 A    
C80   C99   1.419407 A    
C99   C160  1.422374 A    
C1    C125  1.478153 S    
C81   C94   1.411628 A    
C113  C121  1.367723 A    
C92   C100  1.425764 A    
C168  H32   1.080747 S    
C5    C129  1.444512 S    
C22   C30   1.407111 A    
C191  N3    1.154028 T    
C172  H36   1.077130 S    
O15   C15   1.263117 A    
C49   C75   1.427025 A    
C22   C40   1.407446 A    
O16   C16   1.263049 A    
O1    C1    1.249456 A    
C51   C73   1.425713 A    
C58   C64   1.374482 A    
N9    O49   1.301477 A    
C35   C44   1.412828 A    
C87   C95   1.430387 A    
O4    Zn4   2.015230 S    
O18   Zn2   2.027100 S    
O5    Zn5   2.009438 S    
C131  C139  1.446052 A    
C123  C131  1.380390 A    
C56   C61   1.371196 A    
C17   C35   1.398510 A    
O14   Zn1   2.109200 S    
C81   C145  1.426742 A    
C75   C195  1.452419 S    
C17   C25   1.402676 A    
C18   C75   1.403943 A    
C171  C179  1.395347 A    
C51   C68   1.415659 A    
C23   C37   1.417399 A    
C22   C71   1.408814 A    
O26   C2    1.302307 A    
N13   O58   1.300045 A    
O11   C11   1.263700 A    
O39   Zn10  1.975944 S    
C61   H9    1.084952 S    
C164  N16   1.436535 S    
C76   C196  1.441706 S    
O28   Zn7   2.063111 S    
C160  N12   1.437985 S    
O38   C186  1.221421 A    
O29   Zn2   2.062675 S    
C37   C39   1.414214 A    
C47   C66   1.414096 A    
H4    C29   1.081584 S    
N11   O54   1.301642 A    
O41   C183  1.255775 A    
O42   C184  1.271706 A    
C173  H37   1.079551 S    
N12   O55   1.301410 A    
C78   C97   1.420985 A    
C139  C147  1.417301 A    
C107  C147  1.410264 A    
C154  H26   1.080539 S    
C128  C136  1.438565 A    
C170  C178  1.400644 A    
C85   C173  1.408720 A    
C104  C144  1.405084 A    
O26   Zn5   2.062675 S    
C89   C177  1.409554 A    
C127  C135  1.428979 A    
C161  N13   1.432308 S    
C125  C133  1.447671 A    
C155  C163  1.399949 A    
C169  H33   1.080653 S    
C138  C170  1.407425 A    
O40   C188  1.220513 A    
C167  C175  1.390946 A    
C105  C153  1.404318 A    
C150  C158  1.401255 A    
C119  C127  1.375808 A    
C103  C151  1.406399 A    
C73   C193  1.450935 S    
C77   C98   1.418469 A    
O20   Zn4   2.007688 S    
O21   Zn5   2.027100 S    
O1    Zn1   2.009438 S    
C120  C128  1.373028 A    
C121  C129  1.371815 A    
O31   C7    1.309014 A    
O32   C8    1.305406 A    
O17   C9    1.285539 A    
C168  C176  1.396790 A    
C84   C95   1.416938 A    
C178  H42   1.081257 S    
C115  C182  1.466018 S    
C18   C36   1.400747 A    
O19   Zn3   2.007688 S    
C140  C172  1.414669 A    
C104  C112  1.431835 A    
C83   C96   1.415925 A    
C172  C180  1.391387 A    
C174  H38   1.082040 S    
C63   H11   1.084194 S    
C70   C190  1.452152 S    
C152  H24   1.079949 S    
C169  C177  1.395071 A    
C46   C72   1.412998 A    
