data_mof_unit_4128.cif
_audit_creation_date              2013-03-05T15:50:07-0500
_audit_creation_method            fapswitch 2.2
_symmetry_space_group_name_H-M    P1
_symmetry_Int_Tables_number       1
_space_group_crystal_system       triclinic
_cell_length_a                    18.227523
_cell_length_b                    25.913862
_cell_length_c                    18.369869
_cell_angle_alpha                 89.736827
_cell_angle_beta                  90.166675
_cell_angle_gamma                 90.204668
_cell_volume                      8676.74205261

loop_
_atom_site_label
_atom_site_type_symbol
_atom_site_description
_atom_site_fract_x
_atom_site_fract_y
_atom_site_fract_z
_atom_type_partial_charge
Zn1   Zn    Zn3+2 0.249990 0.293780 0.913250 1.071364
Zn2   Zn    Zn3+2 0.249990 0.706220 0.086750 1.067092
Zn3   Zn    Zn3+2 0.249990 0.706220 0.913250 1.039719
Zn4   Zn    Zn3+2 0.249990 0.293780 0.086750 0.967733
Zn5   Zn    Zn3+2 0.749990 0.793780 0.413250 1.067442
Zn6   Zn    Zn3+2 0.749990 0.206220 0.586750 1.076453
Zn7   Zn    Zn3+2 0.749990 0.206220 0.413250 1.027725
Zn8   Zn    Zn3+2 0.749990 0.793780 0.586750 1.030913
Zn9   Zn    Zn3+2 0.336760 0.206240 0.000000 0.977784
Zn10  Zn    Zn3+2 0.336760 0.793760 0.000000 0.969648
Zn11  Zn    Zn3+2 0.836760 0.706240 0.500000 0.970489
Zn12  Zn    Zn3+2 0.836760 0.293760 0.500000 0.966451
Zn13  Zn    Zn3+2 0.163250 0.206230 0.000000 1.126665
Zn14  Zn    Zn3+2 0.163250 0.793770 0.000000 1.123830
Zn15  Zn    Zn3+2 0.663250 0.706230 0.500000 1.121589
Zn16  Zn    Zn3+2 0.663250 0.293770 0.500000 1.123768
O1    O     O_3   0.249990 0.250010 0.000000 -0.517169
O2    O     O_3   0.249990 0.749990 0.000000 -0.516102
O3    O     O_3   0.749990 0.750010 0.500000 -0.518495
O4    O     O_3   0.749990 0.249990 0.500000 -0.517311
O5    O     O_R   0.335430 0.280650 0.146160 -0.640024
O6    O     O_R   0.335430 0.719350 0.853840 -0.645154
O7    O     O_R   0.335430 0.719350 0.146160 -0.614768
O8    O     O_R   0.335430 0.280650 0.853840 -0.609970
O9    O     O_R   0.835430 0.780650 0.646160 -0.644231
O10   O     O_R   0.835430 0.219350 0.353840 -0.642822
O11   O     O_R   0.835430 0.219350 0.646160 -0.613677
O12   O     O_R   0.835430 0.780650 0.353840 -0.615625
O13   O     O_R   0.164550 0.280640 0.853840 -0.587676
O14   O     O_R   0.164550 0.719360 0.146160 -0.603728
O15   O     O_R   0.164550 0.719360 0.853840 -0.597791
O16   O     O_R   0.164550 0.280640 0.146160 -0.657845
O17   O     O_R   0.664550 0.780640 0.353840 -0.605004
O18   O     O_R   0.664550 0.219360 0.646160 -0.599251
O19   O     O_R   0.664550 0.219360 0.353840 -0.602927
O20   O     O_R   0.664550 0.780640 0.646160 -0.601016
O21   O     O_R   0.396160 0.219380 0.914560 -0.642409
O22   O     O_R   0.396160 0.780620 0.085440 -0.645144
O23   O     O_R   0.396160 0.780620 0.914560 -0.653267
O24   O     O_R   0.396160 0.219380 0.085440 -0.649439
O25   O     O_R   0.896160 0.719380 0.414560 -0.641481
O26   O     O_R   0.896160 0.280620 0.585440 -0.640730
O27   O     O_R   0.896160 0.280620 0.414560 -0.662991
O28   O     O_R   0.896160 0.719380 0.585440 -0.651970
O29   O     O_R   0.103840 0.219370 0.085450 -0.591714
O30   O     O_R   0.103840 0.780630 0.914550 -0.594495
O31   O     O_R   0.103840 0.780630 0.085450 -0.583517
O32   O     O_R   0.103840 0.219370 0.914550 -0.587189
O33   O     O_R   0.603840 0.719370 0.585450 -0.601735
O34   O     O_R   0.603840 0.280630 0.414550 -0.596330
O35   O     O_R   0.603840 0.280630 0.585450 -0.579679
O36   O     O_R   0.603840 0.719370 0.414550 -0.577239
O37   O     O_R   0.310730 0.133160 0.000000 -0.665421
O38   O     O_R   0.310730 0.866840 0.000000 -0.665118
O39   O     O_R   0.810730 0.633160 0.500000 -0.664914
O40   O     O_R   0.810730 0.366840 0.500000 -0.668099
O41   O     O_R   0.249970 0.366860 0.060720 -0.650812
O42   O     O_R   0.249970 0.633140 0.939280 -0.607727
O43   O     O_R   0.249970 0.633140 0.060720 -0.647013
O44   O     O_R   0.249970 0.366860 0.939280 -0.626240
O45   O     O_R   0.749970 0.866860 0.560720 -0.617622
O46   O     O_R   0.749970 0.133140 0.439280 -0.624190
O47   O     O_R   0.749970 0.133140 0.560720 -0.636226
O48   O     O_R   0.749970 0.866860 0.439280 -0.642009
O49   O     O_R   0.189290 0.133150 0.000000 -0.549163
O50   O     O_R   0.189290 0.866850 0.000000 -0.567721
O51   O     O_R   0.689290 0.633150 0.500000 -0.563781
O52   O     O_R   0.689290 0.366850 0.500000 -0.563740
C1    C     C_R   0.390140 0.250192 0.139250 0.766531
C2    C     C_R   0.390100 0.749961 0.860567 0.754106
C3    C     C_R   0.390170 0.749659 0.139348 0.799630
C4    C     C_R   0.390054 0.250289 0.860484 0.800445
C5    C     C_R   0.889927 0.749963 0.639401 0.759314
C6    C     C_R   0.889895 0.250618 0.360071 0.765013
C7    C     C_R   0.889943 0.249972 0.639692 0.802459
C8    C     C_R   0.890003 0.750229 0.360397 0.799830
C9    C     C_R   0.110683 0.249386 0.859705 0.872459
C10   C     C_R   0.110653 0.750417 0.140337 0.906893
C11   C     C_R   0.109812 0.750071 0.860481 0.869475
C12   C     C_R   0.106774 0.251958 0.136995 0.807612
C13   C     C_R   0.610691 0.749433 0.359575 0.915583
C14   C     C_R   0.610726 0.250522 0.640440 0.909272
C15   C     C_R   0.609267 0.249373 0.361153 0.867928
C16   C     C_R   0.609384 0.750395 0.639125 0.868222
C17   C     C_R   0.250139 0.109023 0.008400 0.886881
C18   C     C_R   0.250201 0.891095 0.992189 0.879739
C19   C     C_R   0.750040 0.609020 0.508336 0.880703
C20   C     C_R   0.750208 0.391092 0.492179 0.880552
C21   C     C_R   0.248114 0.391128 0.999532 0.887833
C22   C     C_R   0.248324 0.608757 0.000112 0.885428
C23   C     C_R   0.748632 0.891192 0.499895 0.885531
C24   C     C_R   0.748521 0.108815 0.500137 0.885834
C25   C     C_3   0.185302 0.468549 0.055069 0.082845
C26   C     C_3   0.221996 0.530618 0.922160 0.081590
C27   C     C_3   0.194467 0.528511 0.063042 0.124485
C28   C     C_3   0.228522 0.470851 0.919095 0.098814
C29   C     C_3   0.707610 0.969468 0.571491 0.083449
C30   C     C_3   0.703821 0.030326 0.430564 0.087032
C31   C     C_3   0.710686 0.029589 0.573793 0.106647
C32   C     C_3   0.706639 0.970182 0.428230 0.108782
H1    H     H_    0.200695 0.452172 0.109212 0.096641
H2    H     H_    0.264519 0.545412 0.883634 0.115204
H3    H     H_    0.227770 0.534057 0.113540 0.107008
H4    H     H_    0.279539 0.462367 0.887934 0.097514
H5    H     H_    0.743889 0.956401 0.617019 0.117563
H6    H     H_    0.737757 0.043469 0.383428 0.114674
H7    H     H_    0.751320 0.039667 0.617081 0.105458
H8    H     H_    0.744623 0.960202 0.382905 0.103311
H9    H     H_    0.331735 0.458661 0.079243 0.212327
H10   H     H_    0.360509 0.540940 0.970385 0.194658
H11   H     H_    0.345650 0.546256 0.065984 0.206500
H12   H     H_    0.364037 0.453178 0.987825 0.187989
H13   H     H_    0.854361 0.956963 0.548581 0.200028
H14   H     H_    0.851501 0.043675 0.446290 0.195136
H15   H     H_    0.857293 0.045218 0.543226 0.196473
H16   H     H_    0.854779 0.955445 0.451483 0.195567
C33   C     C_3   0.319798 0.470011 0.021901 -0.552778
C34   C     C_3   0.322437 0.529648 0.015039 -0.571338
C35   C     C_3   0.824095 0.970330 0.499288 -0.561305
C36   C     C_3   0.824006 0.030145 0.496997 -0.563662
C37   C     C_3   0.243067 0.448605 0.998222 -0.088883
C38   C     C_3   0.244052 0.551045 0.999843 -0.108119
C39   C     C_3   0.744075 0.948794 0.499692 -0.104678
C40   C     C_3   0.744038 0.051212 0.500535 -0.104525
H17   H     H_    0.132517 0.092155 0.703617 0.162476
H18   H     H_    0.132219 0.909035 0.294208 0.163125
H19   H     H_    0.899198 0.635766 0.931670 0.168110
H20   H     H_    0.957432 0.088999 0.139580 0.173664
H21   H     H_    0.627919 0.589316 0.208709 0.162999
H22   H     H_    0.630626 0.410029 0.792728 0.163086
H23   H     H_    0.383254 0.154552 0.444766 0.168359
H24   H     H_    0.371276 0.821738 0.542600 0.173503
C41   C     C_R   0.005409 0.329701 0.852478 -0.066357
C42   C     C_R   0.008183 0.667696 0.152143 -0.037333
C43   C     C_R   0.124662 0.813393 0.734380 -0.153332
C44   C     C_R   0.056269 0.350505 0.201027 -0.107927
C45   C     C_R   0.511197 0.833183 0.345337 -0.034317
C46   C     C_R   0.509032 0.167467 0.653260 -0.036103
C47   C     C_R   0.634439 0.300362 0.226355 -0.156151
C48   C     C_R   0.640407 0.711301 0.780796 -0.155379
C49   C     C_R   0.956270 0.370661 0.848087 -0.051472
C50   C     C_R   0.958090 0.627061 0.156245 -0.051199
C51   C     C_R   0.132036 0.845513 0.673732 -0.172231
C52   C     C_R   0.032352 0.396556 0.231434 -0.092109
C53   C     C_R   0.463087 0.874666 0.339740 -0.049298
C54   C     C_R   0.460558 0.125963 0.658664 -0.053618
C55   C     C_R   0.647949 0.325526 0.160534 -0.135962
C56   C     C_R   0.657074 0.692570 0.850072 -0.133376
C57   C     C_R   0.410349 0.875474 0.285162 -0.155138
C58   C     C_R   0.408351 0.124887 0.713476 -0.151513
C59   C     C_R   0.594946 0.325583 0.106079 -0.126250
C60   C     C_R   0.604343 0.693079 0.904372 -0.131420
C61   C     C_R   0.905168 0.372624 0.791955 -0.137482
C62   C     C_R   0.905463 0.626259 0.210665 -0.160477
C63   C     C_R   0.078629 0.845568 0.619696 -0.124319
C64   C     C_R   0.975622 0.396112 0.281498 -0.164920
C65   C     C_R   0.405143 0.834550 0.236596 -0.092829
C66   C     C_R   0.403965 0.165592 0.762451 -0.092096
C67   C     C_R   0.528208 0.300480 0.117239 -0.152004
C68   C     C_R   0.534651 0.712309 0.889635 -0.153551
C69   C     C_R   0.902294 0.333223 0.740708 -0.090439
C70   C     C_R   0.902096 0.666455 0.260533 -0.093016
C71   C     C_R   0.017302 0.813737 0.626264 -0.144718
C72   C     C_R   0.944437 0.349460 0.303300 -0.156905
C73   C     C_R   0.453331 0.791770 0.241705 0.063973
C74   C     C_R   0.452553 0.208366 0.757648 0.066179
C75   C     C_R   0.513324 0.274467 0.183669 0.078678
C76   C     C_R   0.516536 0.732143 0.819789 0.080653
C77   C     C_R   0.951424 0.290977 0.744411 0.065100
C78   C     C_R   0.951709 0.708663 0.256664 0.065262
C79   C     C_R   0.008065 0.781327 0.687940 0.080876
C80   C     C_R   0.971029 0.301719 0.276674 0.087879
C81   C     C_R   0.004775 0.289730 0.799957 0.040706
C82   C     C_R   0.005990 0.709155 0.202188 0.032129
C83   C     C_R   0.062145 0.781238 0.742936 0.082032
C84   C     C_R   0.025248 0.302453 0.221668 0.066588
C85   C     C_R   0.507524 0.791206 0.296363 0.033096
C86   C     C_R   0.506527 0.209047 0.702937 0.034102
C87   C     C_R   0.566966 0.274343 0.239051 0.077608
C88   C     C_R   0.570055 0.731855 0.764521 0.074173
C89   C     C_R   0.446834 0.749154 0.194842 -0.115805
C90   C     C_R   0.446679 0.250836 0.804865 -0.116264
C91   C     C_R   0.445915 0.249120 0.195753 -0.112605
C92   C     C_R   0.445759 0.750935 0.803994 -0.112985
C93   C     C_R   0.946724 0.249469 0.695270 -0.116685
C94   C     C_R   0.946587 0.750759 0.304666 -0.117583
C95   C     C_R   0.946131 0.749111 0.695378 -0.107481
C96   C     C_R   0.944523 0.253289 0.302383 -0.132983
C97   C     C_R   0.494011 0.706069 0.200894 0.054526
C98   C     C_R   0.494656 0.293749 0.799180 0.055906
C99   C     C_R   0.430955 0.223212 0.261902 0.049496
C100  C     C_R   0.427218 0.769705 0.733959 0.049566
C101  C     C_R   0.995266 0.207058 0.699731 0.052757
C102  C     C_R   0.995162 0.793363 0.299571 0.055858
C103  C     C_R   0.936650 0.716969 0.756883 0.053349
C104  C     C_R   0.963650 0.207436 0.266285 0.028894
C105  C     C_R   0.053018 0.207345 0.751643 -0.040965
C106  C     C_R   0.052994 0.792893 0.247950 -0.046485
C107  C     C_R   0.987764 0.719324 0.815065 -0.052224
C108  C     C_R   0.997875 0.211261 0.198393 -0.059843
C109  C     C_R   0.551887 0.706480 0.252663 -0.048040
C110  C     C_R   0.552563 0.293282 0.747644 -0.045730
C111  C     C_R   0.483521 0.223819 0.319010 -0.054670
C112  C     C_R   0.480693 0.770507 0.677871 -0.051262
C113  C     C_R   0.055719 0.248619 0.802618 -0.140277
C114  C     C_R   0.056167 0.750993 0.198004 -0.155883
C115  C     C_R   0.052094 0.750164 0.805780 -0.151558
C116  C     C_R   0.041986 0.255842 0.184887 -0.142985
C117  C     C_R   0.556171 0.748778 0.301831 -0.151357
C118  C     C_R   0.556176 0.251159 0.698130 -0.152068
C119  C     C_R   0.552028 0.249165 0.306071 -0.147855
C120  C     C_R   0.552208 0.751027 0.694202 -0.147515
C121  C     C_R   0.485094 0.662781 0.154854 -0.158195
C122  C     C_R   0.486538 0.336929 0.845411 -0.152006
C123  C     C_R   0.363777 0.196411 0.271672 -0.145365
C124  C     C_R   0.355574 0.788243 0.719299 -0.139422
C125  C     C_R   0.987719 0.164543 0.652065 -0.148300
C126  C     C_R   0.987579 0.836289 0.346364 -0.152503
C127  C     C_R   0.876086 0.682729 0.761477 -0.150620
C128  C     C_R   0.946226 0.157857 0.293939 -0.125140
C129  C     C_R   0.531598 0.620659 0.159906 -0.223218
C130  C     C_R   0.533815 0.378873 0.840881 -0.220183
C131  C     C_R   0.347612 0.171649 0.336728 -0.211200
C132  C     C_R   0.336027 0.805821 0.650699 -0.212651
C133  C     C_R   0.035516 0.123071 0.655566 -0.215881
C134  C     C_R   0.035287 0.878012 0.342292 -0.224619
C135  C     C_R   0.864628 0.652638 0.823076 -0.223400
C136  C     C_R   0.949988 0.114809 0.249193 -0.236117
C137  C     C_R   0.093821 0.123784 0.704009 -0.170994
C138  C     C_R   0.093560 0.877186 0.294158 -0.172954
C139  C     C_R   0.910877 0.657579 0.882575 -0.124146
C140  C     C_R   0.965361 0.121332 0.175679 -0.174128
C141  C     C_R   0.590075 0.621454 0.208146 -0.172601
C142  C     C_R   0.592234 0.378021 0.792917 -0.170292
C143  C     C_R   0.397225 0.173281 0.393779 -0.133099
C144  C     C_R   0.387312 0.807071 0.595618 -0.144841
C145  C     C_R   0.104894 0.165730 0.750511 0.352781
C146  C     C_R   0.104774 0.834830 0.248589 0.345983
C147  C     C_R   0.971364 0.690867 0.880138 0.366524
C148  C     C_R   0.985875 0.169994 0.148420 0.390849
C149  C     C_R   0.602633 0.664178 0.252869 0.345465
C150  C     C_R   0.603991 0.335420 0.747941 0.346228
C151  C     C_R   0.464485 0.198862 0.386379 0.366097
C152  C     C_R   0.459282 0.790715 0.607964 0.361969
H25   H     H_    0.043369 0.329574 0.897815 0.168010
H26   H     H_    0.048131 0.666399 0.108958 0.202507
H27   H     H_    0.167720 0.814966 0.775004 0.101154
H28   H     H_    0.096930 0.353907 0.159280 0.208022
H29   H     H_    0.550659 0.833965 0.389024 0.209450
H30   H     H_    0.547930 0.166947 0.609261 0.209087
H31   H     H_    0.677314 0.302001 0.267139 0.111144
H32   H     H_    0.683284 0.709027 0.740379 0.113884
H33   H     H_    0.957848 0.400945 0.888476 0.195426
H34   H     H_    0.960149 0.596053 0.117036 0.204407
H35   H     H_    0.178999 0.870953 0.669065 0.127577
H36   H     H_    0.056236 0.432889 0.214067 0.180717
H37   H     H_    0.466620 0.906208 0.378032 0.208618
H38   H     H_    0.463432 0.094610 0.620045 0.203063
H39   H     H_    0.699687 0.345236 0.151910 0.143881
H40   H     H_    0.711035 0.677360 0.861626 0.140435
H41   H     H_    0.372924 0.907692 0.280753 0.164241
H42   H     H_    0.370650 0.092643 0.717716 0.162967
H43   H     H_    0.605458 0.345264 0.055029 0.141000
H44   H     H_    0.617292 0.678188 0.958039 0.144475
H45   H     H_    0.867060 0.404496 0.788501 0.161226
H46   H     H_    0.866766 0.594552 0.214022 0.160569
H47   H     H_    0.084598 0.870474 0.572590 0.132829
H48   H     H_    0.955090 0.432107 0.302967 0.144267
H49   H     H_    0.362510 0.836754 0.195667 0.186215
H50   H     H_    0.361711 0.163206 0.803524 0.185500
H51   H     H_    0.488536 0.301825 0.073331 0.116742
H52   H     H_    0.495253 0.711053 0.933532 0.125888
H53   H     H_    0.860867 0.336177 0.698658 0.183893
H54   H     H_    0.859717 0.664207 0.301494 0.186246
H55   H     H_    0.977198 0.815037 0.582729 0.108653
H56   H     H_    0.898112 0.351990 0.339394 0.140893
H57   H     H_    0.442059 0.660778 0.114310 0.125242
H58   H     H_    0.443532 0.338979 0.885711 0.124556
H59   H     H_    0.322823 0.194105 0.229035 0.127064
H60   H     H_    0.313411 0.789407 0.760532 0.131289
H61   H     H_    0.944697 0.162634 0.611489 0.123644
H62   H     H_    0.944611 0.838329 0.386711 0.123779
H63   H     H_    0.836976 0.678668 0.717405 0.114502
H64   H     H_    0.928766 0.152140 0.349662 0.139067
H65   H     H_    0.028440 0.090762 0.619013 0.149372
H66   H     H_    0.028191 0.910618 0.378211 0.147314
H67   H     H_    0.818424 0.626335 0.825408 0.146295
H68   H     H_    0.934886 0.077130 0.270108 0.158063
H69   H     H_    0.523492 0.587785 0.124575 0.150894
H70   H     H_    0.526330 0.411661 0.876387 0.148819
H71   H     H_    0.295888 0.151494 0.343177 0.154848
H72   H     H_    0.280836 0.818917 0.640154 0.161089
H73   H     H_    0.999581 0.035523 0.047117 0.195554
H74   H     H_    0.998459 0.962132 0.963114 0.198763
H75   H     H_    0.498347 0.536479 0.541145 0.196924
H76   H     H_    0.498730 0.462472 0.457605 0.195809
C153  C     C_R   0.386323 0.047537 0.036611 -0.123809
C154  C     C_R   0.385978 0.953520 0.964885 -0.125847
C155  C     C_R   0.885466 0.547556 0.538488 -0.123502
C156  C     C_R   0.886294 0.453633 0.466660 -0.138754
C157  C     C_R   0.452498 0.023687 0.019880 -0.120372
C158  C     C_R   0.452309 0.977750 0.981279 -0.120476
C159  C     C_R   0.951928 0.523812 0.522574 -0.113501
C160  C     C_R   0.952353 0.477926 0.483868 -0.134707
C161  C     C_R   0.318338 0.975001 0.987282 0.077518
C162  C     C_R   0.318471 0.025634 0.014638 0.078479
C163  C     C_R   0.818282 0.475019 0.488114 0.085517
C164  C     C_R   0.817977 0.525618 0.515488 0.077314
C165  C     C_R   0.250905 0.947825 0.982092 -0.172097
C166  C     C_R   0.251094 0.052473 0.020198 -0.177711
C167  C     C_R   0.750938 0.447808 0.481917 -0.178737
C168  C     C_R   0.750565 0.552463 0.519909 -0.179553
C169  C     C_R   0.183980 0.975279 0.986431 -0.099554
C170  C     C_R   0.184316 0.024542 0.018164 -0.106690
C171  C     C_R   0.683870 0.475287 0.484736 -0.097742
C172  C     C_R   0.683672 0.524608 0.516510 -0.097527
C173  C     C_R   0.116147 0.955699 0.959460 0.600835
C174  C     C_R   0.117343 0.043758 0.046916 0.619077
C175  C     C_R   0.616446 0.455668 0.456475 0.601258
C176  C     C_R   0.616026 0.543980 0.543775 0.599850
C177  C     C_R   0.050289 0.977898 0.981679 -0.295779
C178  C     C_R   0.050960 0.020280 0.027639 -0.269793
C179  C     C_R   0.550238 0.478307 0.476916 -0.292884
C180  C     C_R   0.550030 0.520858 0.522668 -0.291546
H77   H     H_    0.388966 0.082414 0.068594 0.162588
H78   H     H_    0.388378 0.918732 0.932759 0.162858
H79   H     H_    0.887554 0.582441 0.570503 0.160412
H80   H     H_    0.889243 0.418900 0.434610 0.148325
H81   H     H_    0.503964 0.041408 0.035689 0.158870
H82   H     H_    0.503620 0.960345 0.965149 0.158911
H83   H     H_    0.003138 0.541586 0.539065 0.158529
H84   H     H_    0.003895 0.460594 0.468294 0.152771
N1    N     N_R   0.172133 0.166563 0.791009 0.161264
O53   O     O_R   0.189209 0.127314 0.832020 -0.436763
O54   O     O_R   0.223498 0.198814 0.771875 -0.428784
N2    N     N_R   0.172263 0.833838 0.208893 0.159956
O55   O     O_R   0.190019 0.872940 0.167818 -0.442005
O56   O     O_R   0.223159 0.801619 0.228805 -0.429376
N3    N     N_R   0.010608 0.698269 0.946588 0.166744
O57   O     O_R   0.980072 0.723724 0.999221 -0.417433
O58   O     O_R   0.069490 0.671687 0.959498 -0.374305
N4    N     N_R   0.977669 0.179531 0.071501 0.236406
O59   O     O_R   0.983412 0.142006 0.025053 -0.368894
O60   O     O_R   0.956889 0.224712 0.048176 -0.383030
N5    N     N_R   0.670578 0.665240 0.292212 0.159014
O61   O     O_R   0.688599 0.626115 0.333058 -0.441721
O62   O     O_R   0.721409 0.697636 0.272172 -0.432634
N6    N     N_R   0.671777 0.334322 0.708748 0.158888
O63   O     O_R   0.690048 0.373412 0.667873 -0.441163
O64   O     O_R   0.722328 0.301912 0.728906 -0.429660
N7    N     N_R   0.509876 0.200726 0.449713 0.161976
O65   O     O_R   0.488625 0.227986 0.504984 -0.422803
O66   O     O_R   0.560378 0.166022 0.459091 -0.363826
N8    N     N_R   0.508277 0.795372 0.547866 0.166951
O67   O     O_R   0.491820 0.772087 0.487422 -0.431573
O68   O     O_R   0.556172 0.832670 0.546894 -0.354074
N9    N     N_R   0.110346 0.448920 0.040426 0.251808
O69   O     O_R   0.053898 0.478821 0.031765 -0.271612
O70   O     O_R   0.098093 0.399546 0.044613 -0.433484
N10   N     N_R   0.151350 0.550788 0.895335 0.274545
O71   O     O_R   0.089238 0.530784 0.915659 -0.251774
O72   O     O_R   0.150935 0.584293 0.842333 -0.325741
N11   N     N_R   0.126311 0.555976 0.078935 0.244686
O73   O     O_R   0.098062 0.588887 0.033634 -0.325588
O74   O     O_R   0.095535 0.549474 0.142179 -0.418476
N12   N     N_R   0.169129 0.447187 0.875872 0.265052
O75   O     O_R   0.122741 0.414394 0.903254 -0.343420
O76   O     O_R   0.165901 0.456825 0.806345 -0.345630
N13   N     N_R   0.634790 0.947161 0.587002 0.277183
O77   O     O_R   0.575434 0.965174 0.557013 -0.244982
O78   O     O_R   0.628123 0.913774 0.639739 -0.320936
N14   N     N_R   0.630414 0.052382 0.418237 0.276348
O79   O     O_R   0.572661 0.034490 0.451297 -0.249053
O80   O     O_R   0.621103 0.085269 0.365274 -0.327387
N15   N     N_R   0.641702 0.053161 0.598225 0.256491
O81   O     O_R   0.610447 0.090151 0.561902 -0.354894
O82   O     O_R   0.618492 0.043293 0.663796 -0.358020
N16   N     N_R   0.636303 0.946277 0.407646 0.252463
O83   O     O_R   0.607567 0.908993 0.445540 -0.357081
O84   O     O_R   0.609117 0.956007 0.343445 -0.368362
O85   O     O_3   0.113050 0.917391 0.907407 -0.586171
C181  C     C_3   0.131764 0.939367 0.839535 -0.345054
H85   H     H_    0.098604 0.974384 0.827018 0.179470
H86   H     H_    0.119686 0.910923 0.796449 0.202126
H87   H     H_    0.191334 0.948590 0.837086 0.160273
O86   O     O_3   0.115598 0.084350 0.095494 -0.581986
C182  C     C_3   0.137380 0.066152 0.164670 -0.383827
H88   H     H_    0.195493 0.053193 0.164658 0.167701
H89   H     H_    0.100711 0.034511 0.184042 0.176294
H90   H     H_    0.133064 0.098343 0.204017 0.193735
O87   O     O_3   0.613808 0.415705 0.406812 -0.584499
C183  C     C_3   0.636088 0.434624 0.338226 -0.350070
H91   H     H_    0.695152 0.445525 0.338423 0.155517
H92   H     H_    0.601870 0.467908 0.320331 0.177712
H93   H     H_    0.628728 0.403528 0.297569 0.196354
O88   O     O_3   0.612837 0.584545 0.592417 -0.583611
C184  C     C_3   0.635699 0.566965 0.661581 -0.348860
H94   H     H_    0.601660 0.533792 0.680598 0.178410
H95   H     H_    0.628617 0.598769 0.701155 0.191997
H96   H     H_    0.694775 0.556407 0.661731 0.155783

loop_
_geom_bond_atom_site_label_1
_geom_bond_atom_site_label_2
_geom_bond_distance
_ccdc_geom_bond_type
C170  C174  1.423971 A    
C13   C117  1.451521 S    
N9    O69   1.299211 A    
C106  C114  1.426193 A    
N11   O74   1.301585 A    
C83   C115  1.416446 A    
C182  H90   1.109449 S    
H10   C34   1.113443 S    
N1    O53   1.301067 A    
O26   C7    1.276546 A    
C162  C166  1.417726 A    
C27   N11   1.464761 S    
H11   C34   1.113635 S    
C15   C119  1.451298 S    
C25   C37   1.575274 S    
C184  H95   1.109608 S    
C78   C82   1.409277 A    
O30   C11   1.278255 A    
N14   O79   1.299848 A    
C154  C158  1.393172 A    
C160  H84   1.082578 S    
Zn12  O26   1.933764 S    
C122  C130  1.387038 A    
C104  C128  1.414796 A    
C54   C58   1.387553 A    
C105  C145  1.437043 A    
H19   C139  1.083407 S    
C103  C107  1.417203 A    
C29   H5    1.116779 S    
C108  C116  1.426381 A    
C99   C111  1.418832 A    
C56   H40   1.081036 S    
O11   C7    1.274879 A    
C57   H41   1.082620 S    
O34   C15   1.279236 A    
C67   H51   1.082222 S    
C175  C179  1.396878 A    
C68   H52   1.081655 S    
C53   H37   1.082442 S    
C179  C180  1.389549 A    
C183  H92   1.114018 S    
Zn1   O44   1.955349 S    
C25   H1    1.115068 S    
C165  C169  1.416991 A    
N4    O59   1.301333 A    
H23   C143  1.083511 S    
C76   C88   1.410087 A    
Zn5   O48   1.955349 S    
C61   C69   1.392692 A    
C175  O87   1.383878 S    
Zn6   O47   1.955346 S    
C124  C132  1.384107 A    
Zn7   O46   1.951088 S    
C135  H67   1.082382 S    
O16   C12   1.297824 A    
C136  H68   1.082606 S    
C159  C160  1.388304 A    
Zn16  O4    1.949270 S    
H73   C178  1.080289 S    
C112  C120  1.430062 A    
Zn1   O13   1.929275 S    
C100  C112  1.420415 A    
C128  H64   1.082221 S    
C26   C28   1.555060 S    
N13   O78   1.301558 A    
H24   C144  1.083600 S    
C143  C151  1.398316 A    
Zn4   O16   1.932628 S    
C69   H53   1.081301 S    
C26   C38   1.574912 S    
C27   C38   1.581710 S    
C28   H4    1.116459 S    
O85   C181  1.410580 S    
C137  C145  1.399258 A    
C182  H88   1.112338 S    
C158  H82   1.082511 S    
C31   H7    1.116321 S    
Zn9   O21   1.937513 S    
C166  C170  1.414412 A    
C130  C142  1.384367 A    
C42   C82   1.417937 A    
C41   C49   1.393189 A    
C150  N6    1.432274 S    
N2    O55   1.301105 A    
N15   O81   1.297855 A    
C17   C166  1.480544 S    
C35   C39   1.559858 S    
C30   H6    1.116831 S    
Zn10  O22   1.933764 S    
C84   C116  1.421228 A    
O25   C8    1.278401 A    
Zn13  O29   1.941652 S    
Zn6   O4    1.951776 S    
Zn10  O2    1.942982 S    
C11   C115  1.452728 S    
N6    O63   1.301120 A    
C48   C88   1.420807 A    
C67   C75   1.417811 A    
O29   C12   1.272534 A    
C68   C76   1.418496 A    
C47   C87   1.419809 A    
C26   H2    1.116763 S    
C177  C178  1.388376 A    
C82   C114  1.417902 A    
O37   C17   1.276700 A    
C90   C98   1.415923 A    
O48   C23   1.282480 A    
N16   O83   1.297980 A    
C28   N12   1.474173 S    
C42   H26   1.079101 S    
C43   C83   1.417972 A    
C135  C139  1.384487 A    
C44   C84   1.416313 A    
C167  C171  1.418130 A    
C73   C85   1.406512 A    
C3    C89   1.449132 S    
N7    O65   1.300299 A    
C74   C90   1.408956 A    
Zn16  O35   1.937763 S    
C103  C127  1.416311 A    
Zn15  O33   1.941652 S    
C101  C125  1.416527 A    
C44   H28   1.071168 S    
Zn7   O10   1.932586 S    
C28   C37   1.583216 S    
O33   C16   1.278632 A    
H17   C137  1.083313 S    
O40   C20   1.278979 A    
C110  C150  1.436611 A    
C86   C118  1.417815 A    
C157  H81   1.082508 S    
C34   C38   1.558412 S    
C88   C120  1.419192 A    
Zn5   O17   1.929275 S    
C148  N4    1.440764 S    
C69   C77   1.418125 A    
C43   C51   1.394150 A    
C65   H49   1.081188 S    
C25   C27   1.569666 S    
C23   C39   1.495285 S    
C111  C119  1.428846 A    
C89   C97   1.415466 A    
C109  C117  1.425275 A    
N10   O71   1.298585 A    
C27   H3    1.116683 S    
C32   N16   1.471063 S    
C126  C134  1.386971 A    
C147  N3    1.426403 S    
C32   H8    1.116280 S    
Zn8   O3    1.960265 S    
C43   H27   1.082201 S    
C65   C73   1.419450 A    
O38   C18   1.279110 A    
C98   C110  1.420030 A    
C63   C71   1.392039 A    
C134  C138  1.384307 A    
C132  H72   1.079539 S    
O5    C1    1.280947 A    
C59   C67   1.392692 A    
O32   C9    1.276111 A    
C52   C64   1.385838 A    
C55   C59   1.388673 A    
C51   C63   1.388294 A    
C64   H48   1.082779 S    
C129  H69   1.082777 S    
Zn15  O51   1.954003 S    
Zn11  O28   1.934940 S    
C50   C62   1.387529 A    
C97   C121  1.416564 A    
C142  C150  1.399403 A    
C156  C163  1.417401 A    
C2    C92   1.454514 S    
C12   C116  1.478640 S    
C1    C91   1.451023 S    
C161  C162  1.407190 A    
C54   H38   1.082573 S    
O8    C4    1.276415 A    
C153  H77   1.081096 S    
C176  O88   1.384270 S    
C151  N7    1.426552 S    
C129  C141  1.384333 A    
C62   C70   1.391935 A    
C56   C60   1.387341 A    
C182  H89   1.113758 S    
C107  C147  1.433366 A    
O50   C18   1.281836 A    
C169  C173  1.423362 A    
C126  H62   1.081457 S    
C130  H70   1.082766 S    
Zn1   O1    1.951777 S    
C50   H34   1.082399 S    
Zn13  O1    1.942685 S    
Zn2   O14   1.936352 S    
C26   N10   1.474097 S    
C29   C39   1.575624 S    
C184  H94   1.113858 S    
C70   H54   1.081167 S    
C49   C61   1.388426 A    
C102  C106  1.420056 A    
C41   C81   1.418762 A    
C46   C54   1.392848 A    
C161  C165  1.417587 A    
N14   O80   1.301589 A    
O9    C5    1.281337 A    
C55   H39   1.082595 S    
O36   C13   1.278754 A    
H14   C36   1.113656 S    
C72   C80   1.419837 A    
C154  C161  1.417453 A    
O13   C9    1.275053 A    
Zn1   O8    1.936306 S    
H20   C140  1.079983 S    
N8    O67   1.299946 A    
C25   N9    1.480519 S    
Zn2   O7    1.929232 S    
C153  C157  1.393052 A    
Zn3   O6    1.932586 S    
C173  O85   1.382369 S    
O18   C14   1.276691 A    
O31   C10   1.279751 A    
O6    C2    1.277532 A    
C80   C84   1.415481 A    
C41   H25   1.081197 S    
C31   C40   1.577962 S    
C14   C118  1.455488 S    
C18   C165  1.480914 S    
C75   C87   1.408984 A    
C181  H85   1.114800 S    
C174  O86   1.383046 S    
C30   N14   1.473362 S    
C48   H32   1.081482 S    
H9    C33   1.113424 S    
Zn14  O30   1.935193 S    
C71   H55   1.082397 S    
Zn15  O3    1.942685 S    
C52   H36   1.083012 S    
Zn11  O3    1.949567 S    
O41   C21   1.285879 A    
C176  C180  1.396672 A    
C45   C53   1.392967 A    
Zn16  O34   1.935193 S    
C24   C40   1.494630 S    
H12   C33   1.113678 S    
N4    O60   1.302097 A    
C29   N13   1.473902 S    
O15   C11   1.284918 A    
C128  C136  1.390720 A    
Zn8   O20   1.932628 S    
N12   O75   1.297503 A    
C106  C146  1.436898 A    
C99   C123  1.417028 A    
H13   C35   1.113498 S    
C121  C129  1.387011 A    
H76   C179  1.082750 S    
C181  H86   1.105171 S    
N11   O73   1.295801 A    
C92   C100  1.413802 A    
C74   C86   1.408459 A    
N5    O62   1.300880 A    
C71   C79   1.417311 A    
C59   H43   1.082676 S    
C60   H44   1.082746 S    
C171  C172  1.407525 A    
N9    O70   1.300014 A    
Zn8   O9    1.929426 S    
N10   O72   1.301581 A    
C112  C152  1.438055 A    
C94   C102  1.415668 A    
C6    C96   1.457485 S    
N1    O54   1.300847 A    
C121  H57   1.081390 S    
C174  C178  1.397800 A    
C163  C164  1.406520 A    
O7    C3    1.273707 A    
O88   C184  1.410106 S    
N2    O56   1.300885 A    
C105  C113  1.425430 A    
C184  H96   1.111969 S    
O19   C15   1.282851 A    
C181  H87   1.111976 S    
C46   H30   1.076881 S    
H22   C142  1.083299 S    
Zn9   O24   1.934940 S    
C133  C137  1.384269 A    
Zn6   O18   1.936352 S    
C123  C131  1.385800 A    
Zn10  O23   1.941402 S    
C30   C40   1.574974 S    
C108  C148  1.428401 A    
C42   C50   1.393199 A    
N3    O57   1.300515 A    
C70   C78   1.418369 A    
H74   C177  1.082761 S    
C78   C94   1.409380 A    
N6    O64   1.300853 A    
Zn15  O36   1.934016 S    
C145  N1    1.432021 S    
O42   C22   1.281589 A    
C58   H42   1.082615 S    
Zn4   O1    1.960265 S    
C30   C32   1.560378 S    
Zn9   O37   1.950673 S    
N16   O84   1.301826 A    
O12   C8    1.276502 A    
C136  C140  1.389444 A    
Zn11  O39   1.950673 S    
C66   C74   1.418910 A    
C19   C168  1.480055 S    
C20   C167  1.480929 S    
C155  H79   1.081229 S    
C58   C66   1.392184 A    
Zn2   O43   1.955346 S    
C72   H56   1.077492 S    
C157  C158  1.388379 A    
C183  H91   1.112055 S    
C45   H29   1.076341 S    
C35   C36   1.550412 S    
N7    O66   1.299761 A    
Zn5   O3    1.951777 S    
C134  H66   1.082790 S    
C171  C175  1.425700 A    
C66   H50   1.081164 S    
C172  C176  1.426012 A    
C32   C39   1.576998 S    
C49   H33   1.082704 S    
O86   C182  1.409862 S    
C132  C144  1.379736 A    
C159  H83   1.082494 S    
C44   C52   1.391906 A    
C169  C170  1.405797 A    
C21   C37   1.492708 S    
C156  H80   1.079358 S    
C163  C167  1.418006 A    
O28   C5    1.277539 A    
C4    C90   1.454407 S    
Zn3   O42   1.951088 S    
C173  C177  1.395893 A    
Zn7   O4    1.960266 S    
O21   C4    1.278062 A    
C81   C113  1.416302 A    
C127  C135  1.387163 A    
C33   C34   1.550563 S    
C155  C159  1.393071 A    
C53   C57   1.387097 A    
C156  C160  1.392932 A    
C152  N8    1.426424 S    
C51   H35   1.081940 S    
C60   C68   1.391624 A    
C127  H63   1.082418 S    
C131  H71   1.082724 S    
Zn2   O2    1.951776 S    
H75   C180  1.082753 S    
Zn14  O2    1.949270 S    
C61   H45   1.082615 S    
C104  C108  1.399056 A    
C48   C56   1.393018 A    
C10   C114  1.454337 S    
O87   C183  1.410167 S    
C102  C126  1.416330 A    
Zn13  O49   1.954003 S    
O44   C21   1.276095 A    
C47   C55   1.393273 A    
H18   C138  1.083307 S    
C80   C96   1.422326 A    
Zn12  O27   1.941402 S    
C9    C113  1.448373 S    
C16   C120  1.454811 S    
C155  C164  1.417458 A    
C111  C151  1.436566 A    
C87   C119  1.417356 A    
C154  H78   1.080826 S    
C109  C149  1.436815 A    
Zn3   O2    1.960266 S    
C139  C147  1.398147 A    
C85   C117  1.417969 A    
C33   C37   1.564020 S    
C141  C149  1.399491 A    
C36   C40   1.559966 S    
C75   C91   1.408873 A    
C76   C92   1.409495 A    
O46   C24   1.281184 A    
O47   C24   1.281695 A    
C22   C38   1.497322 S    
Zn16  O52   1.950714 S    
Zn8   O45   1.951090 S    
O27   C6    1.274859 A    
C123  H59   1.082111 S    
O39   C19   1.278156 A    
C124  H60   1.081224 S    
Zn12  O4    1.942982 S    
C7    C93   1.451736 S    
C110  C118  1.425888 A    
C183  H93   1.108744 S    
C149  N5    1.432350 S    
C29   C31   1.559524 S    
N15   O82   1.301771 A    
O24   C1    1.278736 A    
C31   N15   1.472053 S    
C97   C109  1.418311 A    
C79   C83   1.409451 A    
C168  C172  1.416081 A    
H21   C141  1.083290 S    
O43   C22   1.282892 A    
C133  H65   1.082769 S    
Zn4   O41   1.951090 S    
Zn3   O15   1.929469 S    
Zn5   O12   1.936306 S    
C125  H61   1.081490 S    
Zn6   O11   1.929232 S    
C107  C115  1.426848 A    
Zn14  O50   1.950714 S    
C98   C122  1.416274 A    
O35   C14   1.279703 A    
C96   C104  1.408785 A    
Zn12  O40   1.953961 S    
C131  C143  1.382943 A    
Zn9   O1    1.949567 S    
N3    O58   1.298064 A    
N8    O68   1.300212 A    
C122  H58   1.081388 S    
O52   C20   1.281942 A    
C138  C146  1.399393 A    
C46   C86   1.416141 A    
C153  C162  1.417338 A    
C8    C94   1.455336 S    
N13   O77   1.299877 A    
O22   C3    1.276329 A    
C77   C81   1.407851 A    
C95   C103  1.411251 A    
Zn7   O19   1.929469 S    
C47   H31   1.081910 S    
C93   C101  1.415319 A    
C62   H46   1.082630 S    
C91   C99   1.412379 A    
Zn13  O32   1.934016 S    
O49   C17   1.283721 A    
Zn14  O31   1.937763 S    
O51   C19   1.282062 A    
H16   C35   1.113678 S    
C79   C95   1.408236 A    
C73   C89   1.407798 A    
C144  C152  1.397634 A    
C77   C93   1.409616 A    
Zn4   O5    1.929426 S    
O20   C16   1.279317 A    
C101  C105  1.418356 A    
O10   C6    1.284395 A    
O23   C2    1.277945 A    
Zn11  O25   1.937513 S    
Zn10  O38   1.953961 S    
N12   O76   1.301479 A    
C5    C95   1.449547 S    
O14   C10   1.276130 A    
C164  C168  1.416882 A    
C45   C85   1.416062 A    
C64   C72   1.391760 A    
H15   C36   1.113642 S    
C125  C133  1.387051 A    
C140  C148  1.404505 A    
C146  N2    1.432238 S    
C57   C65   1.391782 A    
N5    O61   1.301088 A    
O17   C13   1.273970 A    
C100  C124  1.417708 A    
C63   H47   1.082638 S    
O45   C23   1.280658 A    
