data_mof_unit_4369.cif
_audit_creation_date              2012-12-10T17:17:16-0500
_audit_creation_method            fapswitch 2.2
_symmetry_space_group_name_H-M    P1
_symmetry_Int_Tables_number       1
_space_group_crystal_system       triclinic
_cell_length_a                    21.777289
_cell_length_b                    21.777142
_cell_length_c                    21.776986
_cell_angle_alpha                 90.037128
_cell_angle_beta                  89.811146
_cell_angle_gamma                 89.858468
_cell_volume                      10327.5829481

loop_
_atom_site_label
_atom_site_type_symbol
_atom_type_description
_atom_site_fract_x
_atom_site_fract_y
_atom_site_fract_z
_atom_type_partial_charge
C1    C     C_R   0.499841 0.120182 0.999709 0.835738
C2    C     C_R   0.500088 0.000041 0.879860 0.836873
C3    C     C_R   0.284733 0.361056 0.097055 -0.056763
C4    C     C_R   0.904113 0.639727 0.717250 -0.062553
C5    C     C_R   0.718349 0.615302 0.123062 -0.065104
C6    C     C_R   0.096174 0.639491 0.282979 -0.064206
C7    C     C_R   0.282623 0.638763 0.902946 -0.062325
C8    C     C_R   0.640135 0.716299 0.904060 -0.063373
C9    C     C_R   0.638017 0.098765 0.716850 -0.063493
C10   C     C_R   0.639164 0.282589 0.095841 -0.063884
C11   C     C_R   0.615555 0.876955 0.280437 -0.064799
C12   C     C_R   0.360544 0.284632 0.903473 -0.054427
C13   C     C_R   0.000064 0.500037 0.120159 0.835438
C14   C     C_R   0.362016 0.902417 0.717346 -0.064192
C15   C     C_R   0.360211 0.717470 0.096392 -0.061426
C16   C     C_R   0.365553 0.104849 0.283931 -0.069005
C17   C     C_R   0.282255 0.096622 0.639828 -0.070215
C18   C     C_R   0.902709 0.285116 0.638773 -0.054797
C19   C     C_R   0.716818 0.903429 0.639545 -0.061426
C20   C     C_R   0.101991 0.717039 0.635502 -0.066065
C21   C     C_R   0.717071 0.096250 0.360683 -0.064386
C22   C     C_R   0.098486 0.282045 0.361407 -0.062943
C23   C     C_R   0.284074 0.904525 0.360047 -0.063520
C24   C     C_R   0.499686 0.001392 0.119952 0.832736
C25   C     C_R   0.877444 0.719075 0.384215 -0.063608
C26   C     C_R   0.454126 0.967504 0.717322 0.105983
C27   C     C_R   0.283183 0.968537 0.453150 0.099834
C28   C     C_R   0.540652 0.961316 0.281230 0.095001
C29   C     C_R   0.717077 0.967634 0.546658 0.103946
C30   C     C_R   0.455054 0.035618 0.282830 0.106732
C31   C     C_R   0.282564 0.032415 0.546732 0.097817
C32   C     C_R   0.546505 0.032741 0.717159 0.096212
C33   C     C_R   0.717206 0.031822 0.453414 0.090229
C34   C     C_R   0.032824 0.282487 0.453535 0.101480
C35   C     C_R   0.999897 0.619910 0.499501 0.830525
C36   C     C_R   0.032084 0.546642 0.282826 0.090080
C37   C     C_R   0.035050 0.717293 0.544715 0.106135
C38   C     C_R   0.032240 0.452988 0.717003 0.102209
C39   C     C_R   0.961500 0.718584 0.458951 0.094322
C40   C     C_R   0.967909 0.453502 0.282878 0.103971
C41   C     C_R   0.968148 0.283266 0.546640 0.099086
C42   C     C_R   0.967873 0.546347 0.717245 0.100485
C43   C     C_R   0.718372 0.540934 0.038372 0.095106
C44   C     C_R   0.453431 0.717294 0.032324 0.104329
C45   C     C_R   0.283164 0.453232 0.032040 0.099576
C46   C     C_R   0.499984 0.619710 0.000038 0.834584
C47   C     C_R   0.546380 0.282696 0.031753 0.099280
C48   C     C_R   0.282680 0.546403 0.967854 0.102662
C49   C     C_R   0.546992 0.716938 0.968243 0.090023
C50   C     C_R   0.717588 0.455491 0.964060 0.106151
C51   C     C_R   0.452952 0.283205 0.968074 0.099594
C52   C     C_R   0.962919 0.457269 0.218988 0.097288
C53   C     C_R   0.781578 0.458823 0.959332 0.081555
C54   C     C_R   0.037015 0.456437 0.780927 0.085400
C55   C     C_R   0.219115 0.456058 0.036629 0.089838
C56   C     C_R   0.963009 0.542828 0.781183 0.092595
C57   C     C_R   0.000092 0.380288 0.499419 0.830094
C58   C     C_R   0.782195 0.535869 0.042310 0.098225
C59   C     C_R   0.036957 0.543115 0.218862 0.089842
C60   C     C_R   0.218836 0.542401 0.962815 0.093503
C61   C     C_R   0.543478 0.780884 0.963323 0.091012
C62   C     C_R   0.542661 0.037660 0.781086 0.081175
C63   C     C_R   0.542516 0.218833 0.036798 0.091330
C64   C     C_R   0.535574 0.957357 0.217424 0.098405
C65   C     C_R   0.455911 0.219165 0.963476 0.096394
C66   C     C_R   0.457777 0.962577 0.781216 0.087106
C67   C     C_R   0.457049 0.781224 0.037204 0.097734
C68   C     C_R   0.500066 0.380302 0.999968 0.834059
C69   C     C_R   0.458295 0.040271 0.218826 0.081773
C70   C     C_R   0.218656 0.037337 0.543022 0.092957
C71   C     C_R   0.963354 0.219280 0.543723 0.092007
C72   C     C_R   0.781060 0.962902 0.543139 0.097006
C73   C     C_R   0.039999 0.781242 0.541080 0.086709
C74   C     C_R   0.781081 0.036934 0.457147 0.090785
C75   C     C_R   0.037714 0.218595 0.457567 0.092368
C76   C     C_R   0.219261 0.963559 0.456658 0.091010
C77   C     C_R   0.957550 0.782449 0.463888 0.097438
C78   C     C_R   0.500383 0.000050 0.685709 -0.123290
C79   C     C_R   0.380296 0.500363 0.000068 0.830366
C80   C     C_R   0.314358 0.000344 0.500057 -0.125206
C81   C     C_R   0.499420 0.999728 0.313794 -0.124796
C82   C     C_R   0.685649 0.999719 0.500024 -0.127314
C83   C     C_R   0.000292 0.314341 0.499766 -0.123615
C84   C     C_R   0.000139 0.499951 0.314347 -0.127243
C85   C     C_R   0.999584 0.686165 0.500314 -0.125154
C86   C     C_R   0.999858 0.499565 0.685652 -0.120026
C87   C     C_R   0.686207 0.499751 0.999965 -0.124649
C88   C     C_R   0.500124 0.685635 0.000187 -0.126539
C89   C     C_R   0.314366 0.500128 0.000157 -0.119851
C90   C     C_R   0.380286 0.000091 0.500206 0.834246
C91   C     C_R   0.499843 0.314388 0.999865 -0.121246
C92   C     C_R   0.999999 0.500142 0.186827 -0.139085
C93   C     C_R   0.813705 0.498994 0.999112 -0.136486
C94   C     C_R   0.999985 0.499672 0.813158 -0.142383
C95   C     C_R   0.186849 0.499370 0.999935 -0.143367
C96   C     C_R   0.500234 0.813159 0.000201 -0.138957
C97   C     C_R   0.500252 0.000028 0.813224 -0.151743
C98   C     C_R   0.499358 0.186872 0.999984 -0.142050
C99   C     C_R   0.498556 0.000520 0.186306 -0.136780
C100  C     C_R   0.186850 0.000375 0.499826 -0.145089
C101  C     C_R   0.619923 0.500503 0.999953 0.829389
C102  C     C_R   0.000204 0.186825 0.500469 -0.145313
C103  C     C_R   0.813169 0.999997 0.500187 -0.139422
C104  C     C_R   0.000500 0.813670 0.500882 -0.136656
C105  C     C_2   0.676836 0.140977 0.818309 0.978501
C106  C     C_2   0.179972 0.136268 0.680573 0.976075
C107  C     C_2   0.324412 0.144665 0.181663 0.968657
C108  C     C_2   0.818865 0.134155 0.318679 0.980303
C109  C     C_2   0.641008 0.823832 0.179259 0.997107
C110  C     C_2   0.182654 0.866742 0.317678 0.982148
C111  C     C_2   0.320203 0.864484 0.819281 0.983514
C112  C     C_R   0.999755 0.120166 0.500106 0.836715
C113  C     C_R   0.619716 0.999917 0.500087 0.835154
C114  C     C_2   0.818677 0.866511 0.682053 0.982813
C115  C     C_2   0.865526 0.184490 0.683391 0.982265
C116  C     C_2   0.865490 0.319250 0.181301 0.981793
C117  C     C_2   0.824196 0.820193 0.358931 0.997762
C118  C     C_2   0.867354 0.682637 0.819173 0.985649
C119  C     C_2   0.138816 0.819131 0.677473 0.982678
C120  C     C_2   0.133463 0.681926 0.181100 0.977970
C121  C     C_2   0.140316 0.180259 0.322325 0.982570
C122  C     C_2   0.139216 0.320352 0.817943 0.965150
C123  C     C_2   0.819965 0.324952 0.855181 0.970029
C124  C     C_R   0.500393 0.999947 0.380073 0.830311
C125  C     C_2   0.682787 0.817900 0.866728 0.980785
C126  C     C_2   0.180901 0.679508 0.863683 0.984053
C127  C     C_2   0.315899 0.183701 0.867122 1.022468
C128  C     C_2   0.183920 0.316374 0.133947 0.976405
C129  C     C_2   0.317343 0.819495 0.132907 0.987207
C130  C     C_2   0.819132 0.640255 0.176449 0.994604
C131  C     C_2   0.680874 0.180702 0.133786 0.981569
C132  C     C_2   0.128768 0.686675 0.319661 1.000802
C133  C     C_2   0.680033 0.647978 0.168900 0.976887
C134  C     C_2   0.871669 0.687194 0.680675 0.999988
C135  C     C_R   0.000068 0.499929 0.380282 0.834718
C136  C     C_2   0.319283 0.686041 0.870323 0.997672
C137  C     C_2   0.132199 0.315431 0.678224 0.994574
C138  C     C_2   0.679846 0.320216 0.861326 0.989378
C139  C     C_2   0.870566 0.313843 0.319822 1.001250
C140  C     C_2   0.322627 0.316089 0.131459 0.954673
C141  C     C_2   0.312763 0.681011 0.129026 0.999533
C142  C     C_2   0.315357 0.869274 0.680602 0.997393
C143  C     C_2   0.314998 0.322247 0.869478 0.956605
C144  C     C_2   0.319962 0.138862 0.321803 0.990601
C145  C     C_2   0.686379 0.319180 0.128417 0.999927
C146  C     C_R   0.500329 0.000024 0.619738 0.835212
C147  C     C_2   0.685262 0.131278 0.679964 0.997215
C148  C     C_2   0.687471 0.679391 0.871430 1.000323
C149  C     C_2   0.648632 0.831316 0.318348 0.973923
C150  C     C_2   0.321127 0.872027 0.312746 1.000866
C151  C     C_2   0.130878 0.318545 0.313793 0.996220
C152  C     C_2   0.680387 0.128917 0.313488 0.999350
C153  C     C_2   0.832021 0.681002 0.351221 0.970954
C154  C     C_2   0.680112 0.870781 0.686839 1.001494
C155  C     C_2   0.868178 0.323152 0.683761 0.952956
C156  C     C_2   0.319237 0.127916 0.687784 1.002084
C157  C     C_R   0.999937 0.499730 0.619714 0.834312
C158  C     C_2   0.134748 0.680411 0.682722 0.997829
C159  C     C_R   0.417894 0.921198 0.811459 -0.198168
C160  C     C_R   0.189472 0.922583 0.416124 -0.199822
C161  C     C_R   0.566826 0.909620 0.186220 -0.203333
C162  C     C_R   0.811235 0.921979 0.583519 -0.193964
C163  C     C_R   0.419411 0.082778 0.188821 -0.194472
C164  C     C_R   0.500074 0.879835 0.000013 0.835373
C165  C     C_R   0.188256 0.078458 0.583317 -0.192705
C166  C     C_R   0.581880 0.079625 0.811175 -0.203250
C167  C     C_R   0.811190 0.078102 0.416902 -0.202927
C168  C     C_R   0.079605 0.188173 0.418057 -0.197158
C169  C     C_R   0.077862 0.583523 0.188642 -0.203005
C170  C     C_R   0.082189 0.811366 0.579922 -0.201972
C171  C     C_R   0.078370 0.416153 0.810862 -0.194053
C172  C     C_R   0.909959 0.813557 0.432647 -0.203827
C173  C     C_R   0.921698 0.417249 0.188918 -0.192724
C174  C     C_R   0.922624 0.189635 0.584970 -0.199670
C175  C     C_R   0.001206 0.880037 0.500154 0.833960
C176  C     C_R   0.922157 0.583517 0.811456 -0.198375
C177  C     C_R   0.813006 0.566848 0.090169 -0.202885
C178  C     C_R   0.416472 0.811543 0.078123 -0.193911
C179  C     C_R   0.189252 0.414732 0.077074 -0.203223
C180  C     C_R   0.582686 0.188612 0.077902 -0.197337
C181  C     C_R   0.188664 0.582230 0.921323 -0.196267
C182  C     C_R   0.584099 0.810833 0.922365 -0.203465
C183  C     C_R   0.811978 0.420001 0.916835 -0.194116
C184  C     C_R   0.414603 0.189304 0.923186 -0.218311
C185  C     C_R   0.939674 0.403929 0.314030 -0.200236
C186  C     C_R   0.879839 0.000011 0.500079 0.835227
C187  C     C_R   0.686475 0.407546 0.933390 -0.202889
C188  C     C_R   0.061100 0.403797 0.685589 -0.207235
C189  C     C_R   0.314941 0.404190 0.060420 -0.205996
C190  C     C_R   0.939984 0.596190 0.686157 -0.204558
C191  C     C_R   0.688073 0.585113 0.075190 -0.200209
C192  C     C_R   0.060048 0.596289 0.313991 -0.212933
C193  C     C_R   0.313630 0.596073 0.939624 -0.203326
C194  C     C_R   0.596759 0.685540 0.940248 -0.212671
C195  C     C_R   0.595857 0.061407 0.686006 -0.204085
C196  C     C_R   0.596185 0.313657 0.059573 -0.203525
C197  C     C_R   0.880061 0.499836 0.998490 0.832477
C198  C     C_R   0.585012 0.924632 0.311113 -0.200208
C199  C     C_R   0.403818 0.314951 0.939758 -0.206018
C200  C     C_R   0.404741 0.939060 0.686319 -0.194657
C201  C     C_R   0.403686 0.686289 0.060481 -0.201139
C202  C     C_R   0.407178 0.066458 0.314380 -0.203868
C203  C     C_R   0.313409 0.060408 0.596552 -0.197296
C204  C     C_R   0.939682 0.315129 0.595740 -0.201697
C205  C     C_R   0.685824 0.939392 0.596237 -0.202179
C206  C     C_R   0.064940 0.686058 0.593193 -0.204055
C207  C     C_R   0.686124 0.059796 0.403693 -0.211395
C208  C     C_R   0.120169 0.000122 0.499927 0.833916
C209  C     C_R   0.061354 0.313256 0.403858 -0.204293
C210  C     C_R   0.314686 0.940691 0.403370 -0.205271
C211  C     C_R   0.925025 0.688507 0.414714 -0.199785
C212  C     C_R   0.368223 0.894153 0.781222 -0.073778
C213  C     C_R   0.220190 0.896101 0.366111 -0.074120
C214  C     C_R   0.606716 0.869559 0.216684 -0.071093
C215  C     C_R   0.780803 0.895408 0.633530 -0.074218
C216  C     C_R   0.371088 0.112372 0.219660 -0.071107
C217  C     C_R   0.218315 0.105297 0.633328 -0.078207
C218  C     C_R   0.630942 0.107872 0.780633 -0.069211
C219  C     C_R   0.120173 0.499839 0.000289 0.838593
C220  C     C_R   0.780899 0.104718 0.366939 -0.075716
C221  C     C_R   0.107582 0.218300 0.368568 -0.072467
C222  C     C_R   0.104386 0.633467 0.219019 -0.075575
C223  C     C_R   0.109891 0.780996 0.629247 -0.070397
C224  C     C_R   0.106625 0.367008 0.780124 -0.075863
C225  C     C_R   0.869980 0.782901 0.392977 -0.071388
C226  C     C_R   0.894983 0.367327 0.219245 -0.073113
C227  C     C_R   0.895168 0.221048 0.634146 -0.077693
C228  C     C_R   0.895916 0.633761 0.781184 -0.074847
C229  C     C_R   0.782114 0.606388 0.130461 -0.071245
C230  C     C_R   0.000092 0.499933 0.879832 0.834840
C231  C     C_R   0.366215 0.781385 0.104451 -0.075213
C232  C     C_R   0.220578 0.365580 0.104419 -0.079529
C233  C     C_R   0.632753 0.218768 0.104350 -0.073849
C234  C     C_R   0.218878 0.632036 0.894233 -0.072648
C235  C     C_R   0.634153 0.780224 0.895811 -0.076725
C236  C     C_R   0.781562 0.371605 0.887401 -0.071521
C237  C     C_R   0.365197 0.220493 0.896202 -0.084144
C238  C     C_R   0.903309 0.361000 0.283097 -0.061940
C239  C     C_R   0.717321 0.365945 0.895069 -0.069672
C240  C     C_R   0.098551 0.361314 0.716024 -0.070332
H1    H     H_    0.423610 0.910400 0.859449 0.189317
H2    H     H_    0.088742 0.577995 0.140595 0.190219
H3    H     H_    0.091792 0.859680 0.574577 0.185880
H4    H     H_    0.088968 0.421901 0.858836 0.201062
H5    H     H_    0.902385 0.862109 0.439651 0.177804
H6    H     H_    0.910707 0.423109 0.141004 0.188108
H7    H     H_    0.912262 0.141444 0.580572 0.190825
H8    H     H_    0.911172 0.578027 0.859472 0.188348
H9    H     H_    0.861507 0.559712 0.097716 0.177775
H10   H     H_    0.422045 0.859525 0.089061 0.188244
H11   H     H_    0.140982 0.419095 0.087375 0.192215
H12   H     H_    0.141520 0.911529 0.421658 0.188817
H13   H     H_    0.576755 0.140747 0.089133 0.188204
H14   H     H_    0.140800 0.576190 0.910242 0.187325
H15   H     H_    0.578645 0.858836 0.911433 0.190334
H16   H     H_    0.860396 0.425336 0.907730 0.197167
H17   H     H_    0.419168 0.141109 0.912745 0.189377
H18   H     H_    0.945286 0.398115 0.362987 0.164571
H19   H     H_    0.637630 0.401214 0.939412 0.171213
H20   H     H_    0.055537 0.398208 0.636594 0.166468
H21   H     H_    0.364032 0.399107 0.055059 0.170674
H22   H     H_    0.945602 0.601841 0.637145 0.166615
H23   H     H_    0.559709 0.902055 0.137729 0.177670
H24   H     H_    0.639704 0.594461 0.069345 0.180328
H25   H     H_    0.054334 0.601987 0.363005 0.168865
H26   H     H_    0.362536 0.602072 0.945413 0.164915
H27   H     H_    0.602386 0.636532 0.945965 0.168510
H28   H     H_    0.601979 0.055467 0.637071 0.164948
H29   H     H_    0.602102 0.362591 0.053738 0.166276
H30   H     H_    0.594325 0.930487 0.359453 0.180614
H31   H     H_    0.398734 0.364052 0.944963 0.170010
H32   H     H_    0.398857 0.944774 0.637392 0.166424
H33   H     H_    0.398098 0.637275 0.055092 0.164678
H34   H     H_    0.859296 0.911166 0.577943 0.188614
H35   H     H_    0.400965 0.060568 0.363267 0.171433
H36   H     H_    0.362368 0.054610 0.602214 0.174106
H37   H     H_    0.945282 0.364137 0.600966 0.170191
H38   H     H_    0.636760 0.944734 0.601810 0.164890
H39   H     H_    0.058942 0.637234 0.599566 0.171742
H40   H     H_    0.637212 0.053858 0.397827 0.169030
H41   H     H_    0.055514 0.362190 0.397735 0.164152
H42   H     H_    0.363675 0.946448 0.397715 0.166663
H43   H     H_    0.930922 0.640091 0.405541 0.180598
H44   H     H_    0.765841 0.157769 0.835457 0.377487
H45   H     H_    0.424678 0.091840 0.140401 0.197711
H46   H     H_    0.161476 0.148701 0.770275 0.374047
H47   H     H_    0.303590 0.183115 0.099904 0.379392
H48   H     H_    0.836220 0.143319 0.228471 0.358123
H49   H     H_    0.720015 0.778229 0.164217 0.384651
H50   H     H_    0.166187 0.857565 0.227442 0.356567
H51   H     H_    0.230098 0.854375 0.836423 0.360510
H52   H     H_    0.835144 0.857727 0.772335 0.357125
H53   H     H_    0.853956 0.171635 0.774301 0.380264
H54   H     H_    0.855586 0.229132 0.164335 0.358865
H55   H     H_    0.778651 0.834990 0.280099 0.385024
H56   H     H_    0.140292 0.089442 0.577457 0.187811
H57   H     H_    0.859875 0.773058 0.836173 0.355259
H58   H     H_    0.147601 0.836266 0.767671 0.361281
H59   H     H_    0.142620 0.772204 0.164582 0.357628
H60   H     H_    0.155967 0.162306 0.233063 0.376434
H61   H     H_    0.180288 0.300339 0.898564 0.380051
H62   H     H_    0.901840 0.304273 0.816377 0.379286
H63   H     H_    0.773103 0.834568 0.858260 0.356231
H64   H     H_    0.162740 0.769392 0.853150 0.360367
H65   H     H_    0.225032 0.171606 0.854925 0.380219
H66   H     H_    0.171647 0.225527 0.146192 0.380990
H67   H     H_    0.575788 0.090299 0.859213 0.187508
H68   H     H_    0.226930 0.836884 0.140036 0.355038
H69   H     H_    0.833613 0.718931 0.222417 0.385788
H70   H     H_    0.771030 0.163420 0.143260 0.358284
H71   H     H_    0.206577 0.734919 0.333062 0.376797
H72   H     H_    0.660688 0.661562 0.258160 0.369613
H73   H     H_    0.793981 0.735951 0.667349 0.377665
H74   H     H_    0.333395 0.733992 0.792371 0.378001
H75   H     H_    0.211609 0.270247 0.661735 0.370155
H76   H     H_    0.663660 0.275469 0.781951 0.378446
H77   H     H_    0.792674 0.265732 0.333542 0.377298
H78   H     H_    0.859101 0.089141 0.422607 0.189628
H79   H     H_    0.337310 0.271271 0.210988 0.378464
H80   H     H_    0.263885 0.667956 0.206735 0.377544
H81   H     H_    0.268387 0.790868 0.666711 0.377849
H82   H     H_    0.268363 0.335986 0.790799 0.375140
H83   H     H_    0.275308 0.218410 0.338370 0.377383
H84   H     H_    0.734331 0.332874 0.206323 0.378122
H85   H     H_    0.732619 0.209362 0.664979 0.379056
H86   H     H_    0.736231 0.665670 0.793678 0.376104
H87   H     H_    0.663299 0.742176 0.336974 0.370509
H88   H     H_    0.335325 0.794263 0.264284 0.376455
H89   H     H_    0.090478 0.140209 0.424292 0.186830
H90   H     H_    0.208848 0.333073 0.265815 0.379943
H91   H     H_    0.666779 0.206719 0.265117 0.377414
H92   H     H_    0.743024 0.662691 0.335981 0.371752
H93   H     H_    0.666763 0.793002 0.735312 0.376806
H94   H     H_    0.788635 0.338120 0.728832 0.378617
H95   H     H_    0.396858 0.127883 0.738443 0.363712
H96   H     H_    0.212031 0.667482 0.731841 0.379399
O1    O     O_R   0.551740 0.091630 0.999970 -0.616032
O2    O     O_R   0.908370 0.448260 0.000030 -0.612190
O3    O     O_R   0.693871 0.643089 0.231203 -0.773756
O4    O     O_2   0.895242 0.707550 0.633869 -0.602486
O5    O     O_R   0.812758 0.706347 0.697901 -0.759184
O6    O     O_2   0.365610 0.706919 0.894064 -0.601049
O7    O     O_R   0.302818 0.704379 0.811110 -0.762541
O8    O     O_2   0.107671 0.293005 0.633019 -0.601354
O9    O     O_R   0.193062 0.300408 0.692077 -0.753304
O10   O     O_2   0.634584 0.297691 0.885875 -0.596410
O11   O     O_R   0.693958 0.305453 0.800427 -0.757971
O12   O     O_2   0.894120 0.293018 0.366324 -0.602513
O13   O     O_R   0.908370 0.999970 0.448260 -0.617355
O14   O     O_R   0.811452 0.295497 0.303108 -0.759529
O15   O     O_2   0.370508 0.296622 0.109137 -0.614771
O16   O     O_R   0.305635 0.298773 0.190896 -0.751543
O17   O     O_2   0.292514 0.634138 0.105714 -0.603471
O18   O     O_R   0.293488 0.698432 0.187820 -0.758138
O19   O     O_2   0.294917 0.892456 0.633733 -0.600193
O20   O     O_R   0.297265 0.810117 0.697559 -0.761935
O21   O     O_2   0.295171 0.369832 0.892033 -0.617090
O22   O     O_R   0.297203 0.305096 0.810274 -0.719510
O23   O     O_2   0.297410 0.114491 0.367160 -0.597599
O24   O     O_R   0.908370 0.551740 0.999970 -0.609091
O25   O     O_R   0.305329 0.199801 0.307905 -0.757167
O26   O     O_2   0.707193 0.365661 0.104743 -0.601159
O27   O     O_R   0.704727 0.302402 0.187551 -0.760235
O28   O     O_2   0.707542 0.106570 0.634565 -0.602592
O29   O     O_R   0.702151 0.191263 0.695180 -0.758726
O30   O     O_2   0.707901 0.632638 0.894969 -0.605972
O31   O     O_R   0.706463 0.696267 0.812429 -0.758204
O32   O     O_2   0.675415 0.847582 0.364849 -0.585613
O33   O     O_R   0.644649 0.769027 0.304000 -0.771391
O34   O     O_2   0.367637 0.895814 0.292052 -0.604256
O35   O     O_R   0.091630 0.999970 0.551740 -0.613908
O36   O     O_R   0.304677 0.812877 0.294099 -0.758475
O37   O     O_2   0.106232 0.363998 0.291784 -0.602400
O38   O     O_R   0.190719 0.302935 0.296272 -0.756535
O39   O     O_2   0.633794 0.105393 0.292950 -0.603509
O40   O     O_R   0.697239 0.187943 0.294793 -0.759339
O41   O     O_2   0.848455 0.634189 0.324754 -0.585422
O42   O     O_R   0.769720 0.695593 0.354876 -0.772079
O43   O     O_2   0.633319 0.894302 0.707489 -0.603183
O44   O     O_R   0.697233 0.811787 0.705544 -0.759479
O45   O     O_2   0.890320 0.371023 0.702968 -0.614270
O46   O     O_R   0.091630 0.551740 0.000030 -0.614139
O47   O     O_R   0.808808 0.306317 0.701385 -0.750899
O48   O     O_2   0.303355 0.177923 0.707969 -0.558903
O49   O     O_R   0.374266 0.101363 0.707678 -0.801521
O50   O     O_2   0.111520 0.633508 0.703082 -0.600109
O51   O     O_R   0.193408 0.697747 0.701841 -0.762880
O52   O     O_R   0.091630 0.000030 0.448260 -0.615652
O53   O     O_R   0.091630 0.448260 0.999970 -0.613948
O54   O     O_R   0.999970 0.448260 0.908370 -0.612192
O55   O     O_R   0.551740 0.999970 0.908370 -0.611404
O56   O     O_R   0.000030 0.551740 0.908370 -0.615439
O57   O     O_R   0.000030 0.091630 0.551740 -0.615865
O58   O     O_R   0.448260 0.000030 0.908370 -0.616353
O59   O     O_R   0.000030 0.448260 0.091630 -0.614766
O60   O     O_R   0.448260 0.999970 0.091630 -0.612694
O61   O     O_R   0.999970 0.551740 0.091630 -0.617127
O62   O     O_R   0.551740 0.000030 0.091630 -0.608653
O63   O     O_R   0.051740 0.591630 0.499970 -0.616856
O64   O     O_R   0.500030 0.591630 0.051740 -0.611986
O65   O     O_R   0.948260 0.591630 0.500030 -0.618978
O66   O     O_R   0.499970 0.591630 0.948260 -0.616324
O67   O     O_R   0.051740 0.408370 0.500030 -0.617186
O68   O     O_R   0.448260 0.091630 0.000030 -0.613574
O69   O     O_R   0.500030 0.408370 0.948260 -0.616718
O70   O     O_R   0.948260 0.408370 0.499970 -0.616556
O71   O     O_R   0.499970 0.408370 0.051740 -0.613762
O72   O     O_R   0.408370 0.500030 0.051740 -0.617109
O73   O     O_R   0.408370 0.948260 0.500030 -0.615276
O74   O     O_R   0.408370 0.499970 0.948260 -0.614948
O75   O     O_R   0.408370 0.051740 0.499970 -0.616794
O76   O     O_R   0.591630 0.499970 0.051740 -0.618980
O77   O     O_R   0.591630 0.051740 0.500030 -0.617165
O78   O     O_R   0.591630 0.500030 0.948260 -0.617528
O79   O     O_R   0.999970 0.091630 0.448260 -0.613017
O80   O     O_R   0.591630 0.948260 0.499970 -0.611289
O81   O     O_R   0.499970 0.948260 0.408370 -0.619094
O82   O     O_R   0.051740 0.499970 0.408370 -0.617379
O83   O     O_R   0.500030 0.051740 0.408370 -0.616805
O84   O     O_R   0.948260 0.500030 0.408370 -0.611170
O85   O     O_R   0.500030 0.948260 0.591630 -0.618409
O86   O     O_R   0.948260 0.499970 0.591630 -0.613834
O87   O     O_R   0.499970 0.051740 0.591630 -0.616848
O88   O     O_R   0.051740 0.500030 0.591630 -0.616617
O89   O     O_2   0.660600 0.168446 0.864624 -0.589448
O90   O     O_R   0.551740 0.908370 0.000030 -0.617576
O91   O     O_R   0.739158 0.137189 0.803521 -0.747818
O92   O     O_2   0.133970 0.164699 0.665377 -0.590768
O93   O     O_R   0.193657 0.129159 0.742774 -0.745757
O94   O     O_2   0.271712 0.150668 0.200136 -0.574574
O95   O     O_R   0.339806 0.164726 0.122569 -0.781160
O96   O     O_2   0.865932 0.161351 0.332478 -0.585533
O97   O     O_R   0.803465 0.126649 0.256953 -0.759994
O98   O     O_2   0.618470 0.803766 0.131933 -0.595321
O99   O     O_R   0.700387 0.806319 0.195777 -0.761474
O100  O     O_2   0.135388 0.839649 0.331276 -0.587675
O101  O     O_R   0.000030 0.908370 0.448260 -0.609336
O102  O     O_R   0.198715 0.874165 0.256020 -0.754142
O103  O     O_2   0.334175 0.837809 0.866657 -0.586715
O104  O     O_R   0.258452 0.871212 0.803630 -0.757296
O105  O     O_2   0.866354 0.839834 0.668559 -0.585466
O106  O     O_R   0.802427 0.873948 0.743680 -0.753152
O107  O     O_2   0.839532 0.136332 0.671042 -0.583500
O108  O     O_R   0.871188 0.202900 0.744572 -0.762481
O109  O     O_2   0.838720 0.333212 0.134007 -0.586651
O110  O     O_R   0.872427 0.257485 0.196998 -0.755250
O111  O     O_2   0.803837 0.867462 0.381706 -0.594615
O112  O     O_R   0.448260 0.908370 0.999970 -0.613739
O113  O     O_R   0.806939 0.803614 0.299541 -0.763020
O114  O     O_2   0.840227 0.669481 0.866633 -0.586947
O115  O     O_R   0.875676 0.744165 0.803288 -0.754810
O116  O     O_2   0.165021 0.866819 0.663708 -0.584905
O117  O     O_R   0.131645 0.803287 0.739175 -0.756092
O118  O     O_2   0.160213 0.668381 0.133479 -0.585458
O119  O     O_R   0.126158 0.743568 0.197261 -0.757861
O120  O     O_2   0.168120 0.134130 0.338317 -0.588819
O121  O     O_R   0.135750 0.194505 0.260001 -0.749124
O122  O     O_2   0.143566 0.267216 0.800361 -0.577508
O123  O     O_R   0.999970 0.908370 0.551740 -0.613263
O124  O     O_R   0.161696 0.336449 0.875862 -0.783052
O125  O     O_2   0.801960 0.272172 0.849549 -0.576097
O126  O     O_R   0.878908 0.340464 0.834775 -0.780210
O127  O     O_2   0.669391 0.865253 0.839653 -0.584882
O128  O     O_R   0.744385 0.801874 0.874466 -0.756872
O129  O     O_2   0.134591 0.664813 0.835694 -0.586144
O130  O     O_R   0.195411 0.741496 0.870870 -0.757352
O131  O     O_2   0.328121 0.134900 0.842032 -0.603475
O132  O     O_R   0.254766 0.202655 0.872346 -0.770534
O133  O     O_2   0.135332 0.328706 0.159514 -0.582784
O134  O     O_R   0.908370 0.000030 0.551740 -0.614662
O135  O     O_R   0.202808 0.255231 0.128758 -0.766282
O136  O     O_2   0.330515 0.866852 0.160028 -0.585964
O137  O     O_R   0.255811 0.803874 0.124428 -0.755597
O138  O     O_2   0.866573 0.617595 0.196268 -0.594325
O139  O     O_R   0.802128 0.699415 0.194466 -0.762092
O140  O     O_2   0.666930 0.133547 0.160896 -0.587312
O141  O     O_R   0.742642 0.196149 0.126437 -0.758140
O142  O     O_2   0.105141 0.707349 0.366378 -0.604893
O143  O     O_R   0.187831 0.705224 0.302624 -0.760216
O144  O     O_2   0.633634 0.675184 0.152740 -0.585362
Zn1   Zn    Zn3+2 0.569090 0.000000 0.000000 1.031095
Zn2   Zn    Zn3+2 0.500000 0.500000 0.930910 1.004939
Zn3   Zn    Zn3+2 0.500000 0.930910 0.500000 1.008348
Zn4   Zn    Zn3+2 0.500000 0.069090 0.500000 1.001759
Zn5   Zn    Zn3+2 0.000000 0.000000 0.569090 1.035777
Zn6   Zn    Zn3+2 0.430910 0.000000 0.000000 1.034509
Zn7   Zn    Zn3+2 0.000000 1.000000 0.430910 1.030399
Zn8   Zn    Zn3+2 0.000000 0.430910 0.000000 1.034527
Zn9   Zn    Zn3+2 0.000000 0.569090 0.000000 1.031815
Zn10  Zn    Zn3+2 0.069090 0.500000 0.500000 1.002330
Zn11  Zn    Zn3+2 0.500000 0.500000 0.069090 1.010554
Zn12  Zn    Zn3+2 0.930910 0.500000 0.500000 1.010977

loop_
_geom_bond_atom_site_label_1
_geom_bond_atom_site_label_2
_ccdc_geom_bond_type
C9    C218  A    
H69   O139  S    
O60   Zn6   S    
C171  H4    S    
O84   Zn12  S    
C115  O107  D    
C37   C206  A    
H82   O22   S    
C169  H2    S    
C136  O7    S    
C133  O144  D    
C100  C208  S    
C131  O141  S    
O72   Zn11  S    
H47   O95   S    
O1    Zn1   S    
C66   C97   A    
C149  O33   S    
C16   C144  S    
C146  O85   A    
C63   C98   A    
C3    C189  A    
C143  O22   S    
C141  O17   D    
H53   O108  S    
H49   O99   S    
O85   Zn3   S    
H62   O126  S    
C21   C152  S    
C25   C211  A    
C160  H12   S    
C66   C159  A    
C43   C58   A    
C119  O117  S    
C31   C70   A    
C21   C220  A    
C95   C219  S    
C57   C83   S    
C42   C86   A    
H84   O27   S    
C17   C156  S    
H46   O93   S    
C34   C75   A    
C151  O38   S    
C128  C232  S    
C122  C224  S    
C134  O5    S    
C16   C202  A    
C109  O98   D    
C74   C167  A    
C165  H56   S    
C71   C174  A    
C145  O27   S    
C137  O8    D    
C130  O139  S    
C30   C202  A    
C22   C221  A    
C50   C53   A    
C110  O102  S    
C6    C132  S    
O123  Zn5   S    
C197  O2    A    
C130  C229  S    
C118  C228  S    
H51   O104  S    
C35   O63   A    
C79   O72   A    
C116  O109  D    
C140  O15   D    
C115  C227  S    
C188  C240  A    
H55   O113  S    
C163  C216  A    
C42   C190  A    
C178  H10   S    
O56   Zn9   S    
C119  C223  S    
C196  H29   S    
C195  H28   S    
O57   Zn5   S    
O24   Zn9   S    
C71   C102  A    
H64   O130  S    
H88   O36   S    
C109  C214  S    
C147  O29   S    
C230  O56   A    
C152  O40   S    
C211  H43   S    
C39   C85   A    
O83   Zn4   S    
C30   C69   A    
C28   C64   A    
C199  H31   S    
C119  O116  D    
C23   C213  A    
C122  O124  S    
C200  H32   S    
C10   C233  A    
C129  O137  S    
C166  H67   S    
H58   O117  S    
C101  O78   A    
C180  H13   S    
C9    C195  A    
C208  O52   A    
C72   C103  A    
C13   O61   A    
C76   C100  A    
C128  O133  D    
C53   C183  A    
C32   C62   A    
C29   C82   A    
C164  O112  A    
C172  H5    S    
H61   O124  S    
C38   C188  A    
C25   C225  A    
C19   C215  A    
O35   Zn5   S    
C154  O43   D    
C78   C146  S    
C11   C214  A    
C158  O51   S    
C8    C235  A    
C96   C164  S    
C185  H18   S    
C106  C217  S    
C156  O49   S    
C126  O130  S    
C73   C170  A    
C59   C169  A    
C236  C239  A    
C123  O126  S    
C201  H33   S    
C6    C222  A    
C173  H6    S    
C14   C142  S    
C84   C135  S    
C142  O20   S    
C48   C193  A    
C109  O99   S    
C110  O100  D    
C168  C221  A    
H74   O7    S    
C61   C96   A    
C176  H8    S    
C131  C233  S    
C5    C133  S    
C187  H19   S    
C61   C182  A    
C26   C78   A    
C38   C86   A    
C204  H37   S    
C127  O131  D    
C136  O6    D    
C148  O30   D    
C29   C205  A    
H87   O33   S    
C17   C203  A    
C111  C212  S    
C87   C101  S    
C153  O41   D    
C181  C234  A    
C64   C99   A    
H54   O110  S    
C157  O86   A    
C230  O54   A    
O59   Zn8   S    
C26   C200  A    
C125  O128  S    
C114  O106  S    
C165  C217  A    
C41   C71   A    
C51   C91   A    
C122  O122  D    
C7    C234  A    
C175  O123  A    
C107  O95   S    
C108  O96   D    
C111  O104  S    
C15   C201  A    
O70   Zn12  S    
C176  C228  A    
O75   Zn4   S    
C128  O135  S    
C26   C66   A    
C4    C190  A    
C170  H3    S    
C5    C191  A    
C27   C80   A    
H86   O31   S    
C70   C165  A    
C1    O68   A    
C155  O47   S    
H79   O16   S    
C63   C180  A    
C123  C236  S    
O79   Zn7   S    
C93   C197  S    
C60   C95   A    
C112  O79   A    
C10   C196  A    
C62   C97   A    
C135  O84   A    
C161  H23   S    
H44   O91   S    
C169  C222  A    
C120  C222  S    
C150  O36   S    
C138  C239  S    
C24   O60   A    
C41   C204  A    
C224  C240  A    
C50   C87   A    
C208  O35   A    
C62   C166  A    
H60   O121  S    
C94   C230  S    
O62   Zn1   S    
C4    C134  S    
C35   O65   A    
H76   O11   S    
C60   C181  A    
C167  H78   S    
C22   C151  S    
C33   C207  A    
C68   O69   A    
O64   Zn11  S    
C15   C231  A    
C36   C192  A    
C55   C179  A    
O73   Zn3   S    
C82   C113  S    
C64   C161  A    
C152  O39   D    
C67   C178  A    
C1    C98   S    
C23   C210  A    
C203  H36   S    
C183  C236  A    
C12   C143  S    
C191  H24   S    
C11   C198  A    
C7    C136  S    
H57   O115  S    
C143  O21   D    
C162  H34   S    
O87   Zn4   S    
C44   C201  A    
C144  O25   S    
O101  Zn7   S    
C157  O88   A    
H73   O5    S    
H50   O102  S    
H52   O106  S    
C192  H25   S    
C126  C234  S    
C33   C82   A    
C198  H30   S    
C2    O58   A    
C120  O118  D    
C45   C55   A    
O65   Zn12  S    
C72   C162  A    
C44   C67   A    
C18   C204  A    
O81   Zn3   S    
C207  H40   S    
C79   O74   A    
C65   C184  A    
C151  O37   D    
C161  C214  A    
C40   C84   A    
C102  C112  S    
C36   C59   A    
C57   O70   A    
C31   C80   A    
C121  O120  D    
C145  O26   D    
C56   C94   A    
C118  O115  S    
C155  O45   D    
H72   O3    S    
C193  H26   S    
O88   Zn10  S    
C58   C93   A    
C65   C98   A    
C47   C63   A    
C135  O82   A    
C49   C194  A    
O76   Zn11  S    
C150  O34   D    
C138  O10   D    
C51   C65   A    
C16   C216  A    
O46   Zn9   S    
C116  O110  S    
C140  O16   S    
C42   C56   A    
C15   C141  S    
C11   C149  S    
C156  O48   D    
C2    C97   S    
C8    C194  A    
C75   C168  A    
O54   Zn8   S    
C45   C89   A    
C182  H15   S    
O78   Zn2   S    
C219  O53   A    
C118  O114  D    
O13   Zn7   S    
C68   O71   A    
C139  C238  S    
C115  O108  S    
C49   C88   A    
C8    C148  S    
C32   C195  A    
H90   O38   S    
H94   O47   S    
C186  O134  A    
C186  O13   A    
C174  H7    S    
C113  O80   A    
C133  O3    S    
C49   C61   A    
C25   C153  S    
C47   C196  A    
C117  O113  S    
C183  H16   S    
C141  O18   S    
H77   O14   S    
H83   O25   S    
H70   O141  S    
C90   O75   A    
C14   C200  A    
C139  O12   D    
C27   C210  A    
C28   C198  A    
C159  C212  A    
C132  O143  S    
C179  H11   S    
C164  O90   A    
C38   C54   A    
O71   Zn11  S    
C20   C158  S    
C189  H21   S    
C168  H89   S    
C105  O89   D    
C182  C235  A    
C13   O59   A    
C12   C237  A    
C23   C150  S    
C56   C176  A    
C180  C233  A    
C127  C237  S    
C13   C92   S    
C52   C92   A    
C134  O4    D    
C27   C76   A    
C184  C237  A    
C120  O119  S    
C123  O125  D    
C137  O9    S    
C130  O138  D    
O2    Zn8   S    
O55   Zn1   S    
C47   C91   A    
C114  C215  S    
C194  H27   S    
C187  C239  A    
O80   Zn3   S    
C144  O23   D    
C14   C212  A    
H92   O42   S    
C30   C81   A    
C178  C231  A    
H93   O44   S    
C190  H22   S    
H66   O135  S    
C77   C172  A    
H65   O132  S    
C20   C223  A    
C59   C92   A    
C4    C228  A    
C181  H14   S    
C170  C223  A    
C108  C220  S    
C33   C74   A    
O61   Zn9   S    
C105  C218  S    
C197  O24   A    
C6    C192  A    
C19   C154  S    
C121  C221  S    
C77   C104  A    
C179  C232  A    
O134  Zn5   S    
C159  H1    S    
C18   C155  S    
C131  O140  D    
C41   C83   A    
C163  H45   S    
C226  C238  A    
C24   C99   S    
C35   C85   S    
C20   C206  A    
C174  C227  A    
C111  O103  D    
C171  C224  A    
C209  H41   S    
C90   O73   A    
O112  Zn6   S    
C117  C225  S    
H68   O137  S    
H63   O128  S    
O74   Zn2   S    
C125  C235  S    
C39   C77   A    
O63   Zn10  S    
C37   C85   A    
C173  C226  A    
C57   O67   A    
C177  C229  A    
H95   O49   S    
C22   C209  A    
C68   C91   S    
C139  O14   S    
C124  O81   A    
H75   O9    S    
C105  O91   S    
O77   Zn4   S    
C158  O50   D    
C106  O92   D    
C73   C104  A    
C107  C216  S    
C126  O129  D    
C205  H38   S    
C138  O11   S    
C75   C102  A    
C219  O46   A    
C7    C193  A    
C166  C218  A    
C31   C203  A    
C2    O55   A    
C29   C72   A    
C129  O136  D    
H80   O18   S    
C177  H9    S    
C142  O19   D    
H96   O51   S    
O69   Zn2   S    
C188  H20   S    
C46   O66   A    
C103  C186  S    
H85   O29   S    
C50   C187  A    
C112  O57   A    
C86   C157  S    
C106  O93   S    
C70   C100  A    
C108  O97   S    
C48   C60   A    
C104  C175  S    
C46   C88   S    
C162  C215  A    
O86   Zn12  S    
C79   C89   S    
C81   C124  S    
C53   C93   A    
C210  H42   S    
C127  O132  S    
O58   Zn6   S    
C110  C213  S    
C55   C95   A    
C154  O44   S    
C40   C185  A    
O66   Zn2   S    
C113  O77   A    
C40   C52   A    
C32   C78   A    
C18   C227  A    
C9    C147  S    
C107  O94   D    
C116  C226  S    
C146  O87   A    
C34   C209  A    
C153  O42   S    
C185  C238  A    
C147  O28   D    
C39   C211  A    
C172  C225  A    
C114  O105  D    
C51   C199  A    
C132  O142  D    
C45   C189  A    
C48   C89   A    
C67   C96   A    
C5    C229  A    
H48   O97   S    
O68   Zn6   S    
C34   C83   A    
C1    O1    A    
O52   Zn7   S    
C69   C99   A    
C167  C220  A    
C17   C217  A    
H71   O143  S    
C37   C73   A    
C76   C160  A    
C117  O111  D    
C28   C81   A    
C54   C171  A    
H91   O40   S    
C69   C163  A    
H81   O20   S    
C24   O62   A    
C3    C232  A    
H59   O119  S    
C148  O31   S    
C129  C231  S    
C184  H17   S    
C175  O101  A    
C124  O83   A    
C43   C87   A    
C21   C207  A    
C137  C240  S    
O53   Zn8   S    
C125  O127  D    
C36   C84   A    
C160  C213  A    
C12   C199  A    
C206  H39   S    
C58   C177  A    
C121  O121  S    
C80   C90   S    
C54   C94   A    
C10   C145  S    
C43   C191  A    
O82   Zn10  S    
O67   Zn10  S    
C202  H35   S    
C149  O32   D    
O90   Zn1   S    
C19   C205  A    
C46   O64   A    
C3    C140  S    
C101  O76   A    
C44   C88   A    
C52   C173  A    
C74   C103  A    
