data_mof_unit_2974.cif
_audit_creation_date              2012-10-26T17:18:24-0400
_audit_creation_method            fapswitch 2.2
_symmetry_space_group_name_H-M    P1
_symmetry_Int_Tables_number       1
_space_group_crystal_system       triclinic
_cell_length_a                    30.158287
_cell_length_b                    30.158287
_cell_length_c                    30.158286
_cell_angle_alpha                 90.000054
_cell_angle_beta                  90.000146
_cell_angle_gamma                 89.999933
_cell_volume                      27429.6328859

loop_
_atom_site_label
_atom_site_type_symbol
_atom_type_description
_atom_site_fract_x
_atom_site_fract_y
_atom_site_fract_z
_atom_type_partial_charge
C1    C     C_R   0.000000 0.414343 0.500000 0.550147
C2    C     C_R   0.585658 1.000000 0.500000 0.550147
C3    C     C_R   0.972587 0.203395 0.469889 -0.021084
C4    C     C_R   0.027434 0.469909 0.203394 -0.021079
C5    C     C_R   0.027412 0.203395 0.530112 -0.021084
C6    C     C_R   0.027436 0.530089 0.796606 -0.021078
C7    C     C_R   0.027413 0.796605 0.469888 -0.021084
C8    C     C_R   0.530090 0.796606 0.027436 -0.021079
C9    C     C_R   0.796605 0.469889 0.027414 -0.021084
C10   C     C_R   0.469910 0.203394 0.027436 -0.021078
C11   C     C_R   0.203395 0.530111 0.027414 -0.021084
C12   C     C_R   0.469909 0.796606 0.972565 -0.021079
C13   C     C_R   0.500000 1.000000 0.414343 0.550147
C14   C     C_R   0.203395 0.469887 0.972588 -0.021084
C15   C     C_R   0.530090 0.203394 0.972564 -0.021078
C16   C     C_R   0.796605 0.530112 0.972589 -0.021084
C17   C     C_R   0.796606 0.972565 0.469910 -0.021078
C18   C     C_R   0.469888 0.972588 0.203395 -0.021084
C19   C     C_R   0.203394 0.972565 0.530091 -0.021079
C20   C     C_R   0.530111 0.972587 0.796605 -0.021084
C21   C     C_R   0.796606 0.027435 0.530091 -0.021079
C22   C     C_R   0.469888 0.027413 0.796605 -0.021084
C23   C     C_R   0.203394 0.027435 0.469910 -0.021078
C24   C     C_R   0.414342 0.000000 0.500000 0.550147
C25   C     C_R   0.530113 0.027411 0.203395 -0.021084
C26   C     C_R   0.472565 0.030091 0.703394 -0.021077
C27   C     C_R   0.472589 0.296605 0.030113 -0.021085
C28   C     C_R   0.472564 0.969910 0.296606 -0.021078
C29   C     C_R   0.472587 0.703395 0.969889 -0.021084
C30   C     C_R   0.527434 0.969909 0.703394 -0.021078
C31   C     C_R   0.527412 0.703395 0.030113 -0.021084
C32   C     C_R   0.527436 0.030090 0.296606 -0.021077
C33   C     C_R   0.527413 0.296605 0.969888 -0.021084
C34   C     C_R   0.030090 0.296606 0.527435 -0.021077
C35   C     C_R   0.500000 0.914343 1.000000 0.550146
C36   C     C_R   0.296605 0.969888 0.527413 -0.021084
C37   C     C_R   0.969910 0.703394 0.527436 -0.021078
C38   C     C_R   0.703395 0.030112 0.527413 -0.021084
C39   C     C_R   0.969909 0.296606 0.472565 -0.021078
C40   C     C_R   0.703395 0.969887 0.472589 -0.021084
C41   C     C_R   0.030091 0.703394 0.472565 -0.021077
C42   C     C_R   0.296605 0.030112 0.472588 -0.021084
C43   C     C_R   0.296606 0.472565 0.969910 -0.021077
C44   C     C_R   0.969887 0.472588 0.703395 -0.021084
C45   C     C_R   0.703394 0.472565 0.030091 -0.021079
C46   C     C_R   0.500000 0.000000 0.914342 0.550146
C47   C     C_R   0.030111 0.472587 0.296605 -0.021084
C48   C     C_R   0.296606 0.527435 0.030091 -0.021079
C49   C     C_R   0.969889 0.527413 0.296605 -0.021084
C50   C     C_R   0.703394 0.527435 0.969910 -0.021077
C51   C     C_R   0.030113 0.527411 0.703395 -0.021084
C52   C     C_R   1.000000 0.500000 0.226706 -0.053506
C53   C     C_R   0.000001 0.773293 0.500001 -0.053506
C54   C     C_R   0.000000 0.500000 0.773294 -0.053507
C55   C     C_R   0.999999 0.226707 0.500001 -0.053505
C56   C     C_R   0.499999 0.773294 0.000000 -0.053507
C57   C     C_R   0.500000 0.085657 1.000000 0.550146
C58   C     C_R   0.773293 0.500001 0.000001 -0.053505
C59   C     C_R   0.500000 0.226706 0.000000 -0.053506
C60   C     C_R   0.226707 0.499999 0.000001 -0.053505
C61   C     C_R   0.773294 1.000000 0.500000 -0.053507
C62   C     C_R   0.500000 1.000000 0.226707 -0.053505
C63   C     C_R   0.226706 0.000000 0.500000 -0.053507
C64   C     C_R   0.500000 1.000000 0.773293 -0.053506
C65   C     C_R   0.500000 1.000000 0.726706 -0.053507
C66   C     C_R   0.500001 0.273293 0.000001 -0.053505
C67   C     C_R   0.500000 1.000000 0.273294 -0.053508
C68   C     C_R   0.500000 1.000000 0.085658 0.550147
C69   C     C_R   0.499999 0.726707 0.000001 -0.053505
C70   C     C_R   0.999999 0.273294 0.500000 -0.053507
C71   C     C_R   0.273293 0.000000 0.500000 -0.053505
C72   C     C_R   0.000000 0.726706 0.500000 -0.053507
C73   C     C_R   0.726707 1.000000 0.500001 -0.053505
C74   C     C_R   0.273294 0.500000 0.000001 -0.053507
C75   C     C_R   0.000000 0.500000 0.726707 -0.053505
C76   C     C_R   0.726706 0.500000 0.000001 -0.053507
C77   C     C_R   1.000000 0.500000 0.273293 -0.053505
C78   C     C_R   0.944589 0.559325 0.226908 0.277853
C79   C     C_R   0.914343 0.000000 0.500000 0.550147
C80   C     C_R   0.944635 0.773091 0.559369 0.277851
C81   C     C_R   0.944585 0.440678 0.773092 0.277852
C82   C     C_R   0.944632 0.226909 0.440634 0.277850
C83   C     C_R   0.055411 0.440674 0.226908 0.277852
C84   C     C_R   0.055366 0.226909 0.559368 0.277850
C85   C     C_R   0.055415 0.559322 0.773092 0.277853
C86   C     C_R   0.055367 0.773091 0.440633 0.277850
C87   C     C_R   0.559323 0.773092 0.055414 0.277853
C88   C     C_R   0.773091 0.440634 0.055368 0.277851
C89   C     C_R   0.440678 0.226908 0.055414 0.277853
C90   C     C_R   1.000000 0.085657 0.500000 0.550146
C91   C     C_R   0.226909 0.559366 0.055368 0.277851
C92   C     C_R   0.440675 0.773092 0.944588 0.277852
C93   C     C_R   0.226909 0.440632 0.944634 0.277849
C94   C     C_R   0.559324 0.226908 0.944587 0.277853
C95   C     C_R   0.773091 0.559368 0.944635 0.277849
C96   C     C_R   0.773092 0.944587 0.440677 0.277853
C97   C     C_R   0.440632 0.944634 0.226909 0.277851
C98   C     C_R   0.226908 0.944587 0.559324 0.277852
C99   C     C_R   0.559366 0.944632 0.773091 0.277849
C100  C     C_R   0.773092 0.055412 0.559325 0.277853
C101  C     C_R   0.085657 1.000000 0.500000 0.550146
C102  C     C_R   0.440634 0.055368 0.773091 0.277849
C103  C     C_R   0.226908 0.055413 0.440677 0.277854
C104  C     C_R   0.559369 0.055365 0.226909 0.277850
C105  C     C_R   0.444588 0.059325 0.726908 0.277853
C106  C     C_R   0.444635 0.273091 0.059369 0.277852
C107  C     C_R   0.444586 0.940677 0.273092 0.277855
C108  C     C_R   0.444632 0.726909 0.940633 0.277851
C109  C     C_R   0.555411 0.940675 0.726908 0.277854
C110  C     C_R   0.555365 0.726909 0.059368 0.277851
C111  C     C_R   0.555414 0.059322 0.273092 0.277855
C112  C     C_R   1.000000 0.500000 0.414342 0.550146
C113  C     C_R   0.000000 0.914342 0.500000 0.550146
C114  C     C_R   0.555367 0.273091 0.940633 0.277851
C115  C     C_R   0.059323 0.273092 0.555413 0.277854
C116  C     C_R   0.273091 0.940633 0.555367 0.277851
C117  C     C_R   0.940677 0.726908 0.555414 0.277855
C118  C     C_R   0.726909 0.059367 0.555367 0.277852
C119  C     C_R   0.940675 0.273092 0.444588 0.277854
C120  C     C_R   0.726909 0.940632 0.444634 0.277851
C121  C     C_R   0.059324 0.726908 0.444588 0.277854
C122  C     C_R   0.273091 0.059368 0.444634 0.277851
C123  C     C_R   0.273092 0.444587 0.940677 0.277855
C124  C     C_R   1.000000 0.500000 0.085657 0.550146
C125  C     C_R   0.940631 0.444635 0.726909 0.277853
C126  C     C_R   0.726908 0.444588 0.059325 0.277854
C127  C     C_R   0.059366 0.444632 0.273091 0.277851
C128  C     C_R   0.273092 0.555412 0.059325 0.277854
C129  C     C_R   0.940634 0.555368 0.273091 0.277851
C130  C     C_R   0.726908 0.555413 0.940677 0.277855
C131  C     C_R   0.059370 0.555364 0.726909 0.277851
C132  C     C_3   0.942836 0.628088 0.194526 0.003883
C133  C     C_3   0.939151 0.662360 0.231875 -0.239819
C134  C     C_3   0.960224 0.706405 0.218617 -0.501865
C135  C     C_R   0.085657 0.500000 0.000000 0.550146
C136  C     C_3   0.942936 0.805474 0.628134 0.003897
C137  C     C_3   0.939278 0.768124 0.662405 -0.239791
C138  C     C_3   0.960384 0.781383 0.706435 -0.501843
C139  C     C_3   0.942827 0.371916 0.805474 0.003883
C140  C     C_3   0.939142 0.337644 0.768125 -0.239816
C141  C     C_3   0.960211 0.293597 0.781383 -0.501863
C142  C     C_3   0.942931 0.194528 0.371869 0.003908
C143  C     C_3   0.939261 0.231874 0.337594 -0.239782
C144  C     C_3   0.960368 0.218617 0.293565 -0.501834
C145  C     C_3   0.057163 0.371912 0.194527 0.003882
C146  C     C_R   1.000000 0.500000 0.914343 0.550146
C147  C     C_3   0.060848 0.337640 0.231875 -0.239823
C148  C     C_3   0.039775 0.293595 0.218618 -0.501867
C149  C     C_3   0.057067 0.194526 0.628133 0.003899
C150  C     C_3   0.060725 0.231876 0.662404 -0.239786
C151  C     C_3   0.039619 0.218617 0.706434 -0.501839
C152  C     C_3   0.057174 0.628084 0.805474 0.003888
C153  C     C_3   0.060859 0.662354 0.768123 -0.239804
C154  C     C_3   0.039791 0.706402 0.781381 -0.501850
C155  C     C_3   0.057067 0.805471 0.371868 0.003912
C156  C     C_3   0.060739 0.768125 0.337593 -0.239777
C157  C     C_R   0.914342 0.500000 0.000000 0.550146
C158  C     C_3   0.039630 0.781382 0.293564 -0.501830
C159  C     C_3   0.628085 0.805474 0.057170 0.003893
C160  C     C_3   0.662357 0.768124 0.060857 -0.239800
C161  C     C_3   0.706404 0.781381 0.039786 -0.501848
C162  C     C_3   0.805473 0.371869 0.057070 0.003897
C163  C     C_3   0.768126 0.337596 0.060732 -0.239798
C164  C     C_3   0.781384 0.293567 0.039627 -0.501849
C165  C     C_3   0.371916 0.194526 0.057171 0.003889
C166  C     C_3   0.337644 0.231876 0.060858 -0.239804
C167  C     C_3   0.293597 0.218619 0.039787 -0.501853
C168  C     C_R   0.026690 0.469947 0.156969 -0.125221
C169  C     C_3   0.194527 0.628131 0.057070 0.003900
C170  C     C_3   0.231875 0.662404 0.060735 -0.239793
C171  C     C_3   0.218617 0.706434 0.039629 -0.501844
C172  C     C_3   0.371913 0.805474 0.942833 0.003874
C173  C     C_3   0.337641 0.768127 0.939150 -0.239835
C174  C     C_3   0.293596 0.781385 0.960221 -0.501878
C175  C     C_3   0.194526 0.371867 0.942934 0.003905
C176  C     C_3   0.231875 0.337594 0.939272 -0.239777
C177  C     C_3   0.218617 0.293565 0.960380 -0.501831
C178  C     C_3   0.628085 0.194525 0.942831 0.003874
C179  C     C_R   0.026669 0.843030 0.469926 -0.125220
C180  C     C_3   0.662357 0.231873 0.939149 -0.239837
C181  C     C_3   0.706403 0.218614 0.960219 -0.501878
C182  C     C_3   0.805473 0.628133 0.942935 0.003904
C183  C     C_3   0.768125 0.662406 0.939272 -0.239778
C184  C     C_3   0.781383 0.706435 0.960380 -0.501833
C185  C     C_3   0.805473 0.942829 0.371914 0.003894
C186  C     C_3   0.768122 0.939143 0.337643 -0.239794
C187  C     C_3   0.781379 0.960212 0.293596 -0.501841
C188  C     C_3   0.371867 0.942934 0.194526 0.003899
C189  C     C_3   0.337595 0.939276 0.231875 -0.239788
C190  C     C_R   0.026692 0.530051 0.843031 -0.125221
C191  C     C_3   0.293566 0.960382 0.218616 -0.501841
C192  C     C_3   0.194527 0.942833 0.628086 0.003886
C193  C     C_3   0.231875 0.939146 0.662359 -0.239821
C194  C     C_3   0.218619 0.960220 0.706404 -0.501866
C195  C     C_3   0.628131 0.942931 0.805473 0.003906
C196  C     C_3   0.662405 0.939263 0.768125 -0.239784
C197  C     C_3   0.706434 0.960371 0.781382 -0.501834
C198  C     C_3   0.805474 0.057167 0.628086 0.003878
C199  C     C_3   0.768127 0.060851 0.662359 -0.239832
C200  C     C_3   0.781384 0.039779 0.706404 -0.501876
C201  C     C_R   0.026669 0.156970 0.530074 -0.125223
C202  C     C_3   0.371868 0.057069 0.805472 0.003906
C203  C     C_3   0.337595 0.060735 0.768125 -0.239782
C204  C     C_3   0.293566 0.039628 0.781382 -0.501834
C205  C     C_3   0.194526 0.057170 0.371915 0.003890
C206  C     C_3   0.231877 0.060856 0.337643 -0.239801
C207  C     C_3   0.218619 0.039787 0.293596 -0.501846
C208  C     C_3   0.628134 0.057064 0.194527 0.003900
C209  C     C_3   0.662407 0.060725 0.231875 -0.239786
C210  C     C_3   0.706436 0.039618 0.218617 -0.501839
C211  C     C_3   0.442834 0.128087 0.694527 0.003892
C212  C     C_R   0.973309 0.530053 0.156969 -0.125221
C213  C     C_3   0.439150 0.162359 0.731877 -0.239803
C214  C     C_3   0.460221 0.206405 0.718620 -0.501850
C215  C     C_3   0.442937 0.305473 0.128134 0.003900
C216  C     C_3   0.439283 0.268121 0.162404 -0.239782
C217  C     C_3   0.460389 0.281380 0.206433 -0.501837
C218  C     C_3   0.442828 0.871915 0.305473 0.003898
C219  C     C_3   0.439141 0.837644 0.268123 -0.239789
C220  C     C_3   0.460209 0.793596 0.281380 -0.501840
C221  C     C_3   0.442932 0.694528 0.871868 0.003912
C222  C     C_3   0.439265 0.731876 0.837595 -0.239775
C223  C     C_R   1.000000 0.585657 0.500000 0.550147
C224  C     C_R   0.973331 0.156970 0.469927 -0.125221
C225  C     C_3   0.460372 0.718619 0.793566 -0.501830
C226  C     C_3   0.557165 0.871912 0.694527 0.003891
C227  C     C_3   0.560850 0.837641 0.731877 -0.239805
C228  C     C_3   0.539778 0.793595 0.718620 -0.501852
C229  C     C_3   0.557066 0.694526 0.128133 0.003903
C230  C     C_3   0.560720 0.731879 0.162403 -0.239778
C231  C     C_3   0.539614 0.718620 0.206433 -0.501834
C232  C     C_3   0.557173 0.128085 0.305473 0.003907
C233  C     C_3   0.560861 0.162355 0.268120 -0.239772
C234  C     C_3   0.539794 0.206404 0.281378 -0.501822
C235  C     C_R   0.973308 0.469948 0.843031 -0.125222
C236  C     C_3   0.557067 0.305472 0.871867 0.003911
C237  C     C_3   0.560735 0.268125 0.837594 -0.239777
C238  C     C_3   0.539626 0.281381 0.793565 -0.501833
C239  C     C_3   0.128086 0.305473 0.557170 0.003907
C240  C     C_3   0.162357 0.268121 0.560858 -0.239775
C241  C     C_3   0.206405 0.281378 0.539788 -0.501826
C242  C     C_3   0.305473 0.871868 0.557068 0.003900
C243  C     C_3   0.268123 0.837596 0.560727 -0.239790
C244  C     C_3   0.281382 0.793567 0.539621 -0.501842
C245  C     C_3   0.871915 0.694527 0.557171 0.003902
C246  C     C_R   0.973332 0.843030 0.530074 -0.125222
C247  C     C_3   0.837644 0.731878 0.560859 -0.239782
C248  C     C_3   0.793596 0.718622 0.539789 -0.501834
C249  C     C_3   0.694527 0.128132 0.557068 0.003904
C250  C     C_3   0.731877 0.162404 0.560730 -0.239785
C251  C     C_3   0.718619 0.206433 0.539624 -0.501838
C252  C     C_3   0.871912 0.305473 0.442833 0.003887
C253  C     C_3   0.837641 0.268124 0.439149 -0.239811
C254  C     C_3   0.793595 0.281382 0.460219 -0.501857
C255  C     C_3   0.694526 0.871867 0.442935 0.003910
C256  C     C_3   0.731878 0.837595 0.439275 -0.239766
C257  C     C_R   0.469948 0.843031 0.973309 -0.125221
C258  C     C_3   0.718620 0.793566 0.460384 -0.501824
C259  C     C_3   0.128086 0.694526 0.442832 0.003887
C260  C     C_3   0.162357 0.731876 0.439148 -0.239811
C261  C     C_3   0.206404 0.718618 0.460216 -0.501857
C262  C     C_3   0.305473 0.128133 0.442935 0.003909
C263  C     C_3   0.268122 0.162405 0.439274 -0.239768
C264  C     C_3   0.281380 0.206434 0.460383 -0.501826
C265  C     C_3   0.305472 0.442830 0.871914 0.003910
C266  C     C_3   0.268119 0.439141 0.837643 -0.239767
C267  C     C_3   0.281376 0.460210 0.793595 -0.501816
C268  C     C_R   0.843030 0.530074 0.973332 -0.125222
C269  C     C_3   0.871866 0.442937 0.694526 0.003904
C270  C     C_3   0.837596 0.439282 0.731878 -0.239777
C271  C     C_3   0.793566 0.460388 0.718619 -0.501834
C272  C     C_3   0.694526 0.442834 0.128087 0.003883
C273  C     C_3   0.731874 0.439148 0.162359 -0.239822
C274  C     C_3   0.718617 0.460220 0.206405 -0.501870
C275  C     C_3   0.128131 0.442930 0.305473 0.003908
C276  C     C_3   0.162403 0.439265 0.268124 -0.239777
C277  C     C_3   0.206432 0.460372 0.281381 -0.501831
C278  C     C_3   0.305474 0.557166 0.128087 0.003883
C279  C     C_R   0.530052 0.156969 0.973308 -0.125222
C280  C     C_3   0.268126 0.560850 0.162359 -0.239820
C281  C     C_3   0.281384 0.539779 0.206405 -0.501867
C282  C     C_3   0.871869 0.557071 0.305473 0.003909
C283  C     C_3   0.837597 0.560734 0.268123 -0.239777
C284  C     C_3   0.793567 0.539627 0.281381 -0.501831
C285  C     C_3   0.694527 0.557170 0.871914 0.003908
C286  C     C_3   0.731880 0.560859 0.837644 -0.239770
C287  C     C_3   0.718623 0.539791 0.793595 -0.501819
C288  C     C_3   0.128135 0.557062 0.694527 0.003906
C289  C     C_3   0.162406 0.560721 0.731878 -0.239774
C290  C     C_R   0.156970 0.469926 0.973332 -0.125222
C291  C     C_3   0.206435 0.539613 0.718620 -0.501831
C292  C     C_R   0.530052 0.843031 0.026691 -0.125220
C293  C     C_R   0.156970 0.530073 0.026670 -0.125222
C294  C     C_R   0.469948 0.156969 0.026692 -0.125221
C295  C     C_R   1.000000 0.500000 0.585658 0.550147
C296  C     C_R   0.843030 0.469927 0.026670 -0.125222
C297  C     C_R   0.843031 0.026691 0.530052 -0.125221
C298  C     C_R   0.530074 0.026668 0.156970 -0.125222
C299  C     C_R   0.156969 0.026691 0.469948 -0.125220
C300  C     C_R   0.469927 0.026669 0.843030 -0.125222
C301  C     C_R   0.843031 0.973309 0.469948 -0.125220
C302  C     C_R   0.530073 0.973331 0.843030 -0.125221
C303  C     C_R   0.156969 0.973309 0.530053 -0.125221
C304  C     C_R   0.469926 0.973331 0.156970 -0.125222
C305  C     C_R   0.526690 0.969947 0.656969 -0.125220
C306  C     C_R   0.414343 0.500000 1.000000 0.550147
C307  C     C_R   0.526669 0.343030 0.969926 -0.125220
C308  C     C_R   0.526691 0.030052 0.343031 -0.125219
C309  C     C_R   0.526668 0.656970 0.030074 -0.125223
C310  C     C_R   0.473309 0.030053 0.656969 -0.125220
C311  C     C_R   0.473331 0.656970 0.969927 -0.125221
C312  C     C_R   0.473309 0.969947 0.343031 -0.125220
C313  C     C_R   0.473332 0.343030 0.030074 -0.125223
C314  C     C_R   0.969947 0.343031 0.473309 -0.125220
C315  C     C_R   0.343030 0.030074 0.473332 -0.125222
C316  C     C_R   0.030052 0.656969 0.473309 -0.125220
C317  C     C_R   0.500000 0.585657 0.000000 0.550146
C318  C     C_R   0.656970 0.969926 0.473332 -0.125222
C319  C     C_R   0.030053 0.343031 0.526690 -0.125219
C320  C     C_R   0.656970 0.030073 0.526669 -0.125222
C321  C     C_R   0.969948 0.656969 0.526691 -0.125220
C322  C     C_R   0.343030 0.969927 0.526669 -0.125222
C323  C     C_R   0.343031 0.526691 0.030053 -0.125221
C324  C     C_R   0.030075 0.526667 0.656970 -0.125222
C325  C     C_R   0.656969 0.526690 0.969947 -0.125218
C326  C     C_R   0.969927 0.526670 0.343030 -0.125222
C327  C     C_R   0.343031 0.473310 0.969947 -0.125219
C328  C     C_R   0.585657 0.500000 0.000000 0.550147
C329  C     C_R   0.030073 0.473330 0.343030 -0.125222
C330  C     C_R   0.656969 0.473309 0.030053 -0.125221
C331  C     C_R   0.969926 0.473332 0.656970 -0.125223
C332  C     C_R   1.000000 0.500000 0.133971 -0.021724
C333  C     C_R   0.000000 0.866028 0.500000 -0.021734
C334  C     C_R   0.000000 0.500000 0.866029 -0.021723
C335  C     C_R   1.000000 0.133972 0.500000 -0.021734
C336  C     C_R   0.500000 0.866029 1.000000 -0.021723
C337  C     C_R   0.866028 0.500000 0.000001 -0.021733
C338  C     C_R   0.500000 0.133971 1.000000 -0.021723
C339  C     C_R   0.500000 0.414342 0.000000 0.550147
C340  C     C_R   0.133972 0.500000 0.000000 -0.021734
C341  C     C_R   0.866029 0.000000 0.500000 -0.021723
C342  C     C_R   0.500000 1.000000 0.133972 -0.021734
C343  C     C_R   0.133971 1.000000 0.500000 -0.021723
C344  C     C_R   0.500000 1.000000 0.866028 -0.021733
C345  C     C_R   0.500000 0.000000 0.633971 -0.021724
C346  C     C_R   0.500000 0.366028 0.000000 -0.021734
C347  C     C_R   0.500000 1.000000 0.366029 -0.021723
C348  C     C_R   0.500000 0.633972 0.000000 -0.021733
C349  C     C_R   1.000000 0.366029 0.500000 -0.021723
C350  C     C_R   0.500000 0.000000 0.585657 0.550147
C351  C     C_R   0.366028 0.000000 0.500000 -0.021734
C352  C     C_R   1.000000 0.633971 0.500000 -0.021723
C353  C     C_R   0.633972 1.000000 0.500000 -0.021733
C354  C     C_R   0.366029 0.500000 1.000000 -0.021723
C355  C     C_R   0.000000 0.500000 0.633972 -0.021734
C356  C     C_R   0.633971 0.500000 0.000000 -0.021723
C357  C     C_R   1.000000 0.500000 0.366028 -0.021733
C358  C     C_R   0.972565 0.530091 0.203394 -0.021079
C359  C     C_R   0.972589 0.796605 0.530113 -0.021085
C360  C     C_R   0.972564 0.469910 0.796606 -0.021079
Cu1   Cu    Cu3+1 0.955520 0.500000 0.500000 0.905559
Cu2   Cu    Cu3+1 1.000000 0.000000 0.455520 0.905560
Cu3   Cu    Cu3+1 0.000000 0.455520 0.000000 0.905560
Cu4   Cu    Cu3+1 0.000000 0.544480 0.000000 0.905560
Cu5   Cu    Cu3+1 0.044480 0.500000 0.500000 0.905559
Cu6   Cu    Cu3+1 0.500000 0.500000 0.044480 0.905560
Cu7   Cu    Cu3+1 0.500000 0.500000 0.955520 0.905559
Cu8   Cu    Cu3+1 0.500000 0.955520 0.500000 0.905559
Cu9   Cu    Cu3+1 0.500000 0.044480 0.500000 0.905559
Cu10  Cu    Cu3+1 0.455520 0.000000 0.000000 0.905560
Cu11  Cu    Cu3+1 0.544480 0.000000 0.000000 0.905560
Cu12  Cu    Cu3+1 0.000000 0.000000 0.544480 0.905560
H1    H     H_    0.047638 0.447427 0.138382 0.153016
H2    H     H_    0.861616 0.552610 0.952401 0.153036
H3    H     H_    0.096254 0.759988 0.332006 0.188851
H4    H     H_    0.043632 0.738040 0.350181 0.192378
H5    H     H_    0.003912 0.789041 0.298301 0.144510
H6    H     H_    0.042659 0.753583 0.269619 0.147584
H7    H     H_    0.056664 0.810878 0.279538 0.144680
H8    H     H_    0.642549 0.836154 0.071532 0.146610
H9    H     H_    0.621159 0.812949 0.021572 0.114150
H10   H     H_    0.667916 0.759974 0.096373 0.188865
H11   H     H_    0.649780 0.738047 0.043732 0.192362
H12   H     H_    0.701692 0.789057 0.004069 0.144514
H13   H     H_    0.552570 0.138381 0.952359 0.153014
H14   H     H_    0.730344 0.753579 0.042820 0.147582
H15   H     H_    0.720420 0.810865 0.056841 0.144690
H16   H     H_    0.836157 0.357393 0.071417 0.146601
H17   H     H_    0.812944 0.378823 0.021476 0.114156
H18   H     H_    0.759980 0.332009 0.096243 0.188873
H19   H     H_    0.738047 0.350187 0.043618 0.192365
H20   H     H_    0.789053 0.298305 0.003912 0.144518
H21   H     H_    0.753585 0.269624 0.042647 0.147588
H22   H     H_    0.810874 0.279538 0.056667 0.144683
H23   H     H_    0.357452 0.163846 0.071533 0.146612
H24   H     H_    0.138383 0.447390 0.952400 0.153035
H25   H     H_    0.378842 0.187051 0.021573 0.114152
H26   H     H_    0.332084 0.240025 0.096374 0.188866
H27   H     H_    0.350221 0.261953 0.043733 0.192364
H28   H     H_    0.298309 0.210943 0.004071 0.144516
H29   H     H_    0.269657 0.246421 0.042820 0.147582
H30   H     H_    0.279581 0.189135 0.056842 0.144692
H31   H     H_    0.163843 0.642607 0.071417 0.146599
H32   H     H_    0.187057 0.621178 0.021476 0.114153
H33   H     H_    0.240019 0.667991 0.096247 0.188869
H34   H     H_    0.261955 0.649814 0.043622 0.192368
H35   H     H_    0.552571 0.861618 0.047639 0.153014
H36   H     H_    0.210950 0.701696 0.003914 0.144516
H37   H     H_    0.246416 0.730376 0.042652 0.147587
H38   H     H_    0.189126 0.720461 0.056668 0.144682
H39   H     H_    0.357448 0.836153 0.928472 0.146621
H40   H     H_    0.378842 0.812950 0.978429 0.114163
H41   H     H_    0.332080 0.759975 0.903637 0.188879
H42   H     H_    0.350219 0.738052 0.956276 0.192366
H43   H     H_    0.298310 0.789061 0.995935 0.144526
H44   H     H_    0.269655 0.753585 0.957190 0.147587
H45   H     H_    0.279579 0.810867 0.943167 0.144696
H46   H     H_    0.138383 0.552608 0.047602 0.153035
H47   H     H_    0.163842 0.357391 0.928585 0.146595
H48   H     H_    0.187054 0.378822 0.978528 0.114151
H49   H     H_    0.240021 0.332007 0.903759 0.188858
H50   H     H_    0.261956 0.350186 0.956384 0.192362
H51   H     H_    0.210948 0.298304 0.996095 0.144512
H52   H     H_    0.246418 0.269623 0.957361 0.147583
H53   H     H_    0.189127 0.279536 0.943339 0.144679
H54   H     H_    0.642551 0.163847 0.928470 0.146621
H55   H     H_    0.621157 0.187049 0.978427 0.114163
H56   H     H_    0.667919 0.240025 0.903636 0.188880
H57   H     H_    0.447429 0.138382 0.047640 0.153014
H58   H     H_    0.649780 0.261947 0.956275 0.192365
H59   H     H_    0.701690 0.210937 0.995933 0.144526
H60   H     H_    0.730344 0.246414 0.957188 0.147587
H61   H     H_    0.720420 0.189133 0.943164 0.144696
H62   H     H_    0.836158 0.642609 0.928587 0.146595
H63   H     H_    0.812944 0.621178 0.978529 0.114151
H64   H     H_    0.759980 0.667994 0.903758 0.188857
H65   H     H_    0.738043 0.649815 0.956384 0.192364
H66   H     H_    0.789051 0.701696 0.996096 0.144511
H67   H     H_    0.753582 0.730377 0.957360 0.147584
H68   H     H_    0.861617 0.447392 0.047602 0.153035
H69   H     H_    0.810873 0.720464 0.943341 0.144679
H70   H     H_    0.836153 0.928467 0.357450 0.146609
H71   H     H_    0.812949 0.978428 0.378841 0.114149
H72   H     H_    0.759971 0.903627 0.332085 0.188866
H73   H     H_    0.738045 0.956270 0.350220 0.192358
H74   H     H_    0.789056 0.995930 0.298306 0.144512
H75   H     H_    0.753576 0.957179 0.269656 0.147581
H76   H     H_    0.810863 0.943156 0.279580 0.144689
H77   H     H_    0.357389 0.928584 0.163843 0.146600
H78   H     H_    0.378823 0.978527 0.187051 0.114153
H79   H     H_    0.861618 0.047640 0.552571 0.153015
H80   H     H_    0.332008 0.903765 0.240025 0.188872
H81   H     H_    0.350187 0.956393 0.261953 0.192357
H82   H     H_    0.298305 0.996096 0.210942 0.144514
H83   H     H_    0.269624 0.957366 0.246417 0.147585
H84   H     H_    0.279535 0.943338 0.189129 0.144681
H85   H     H_    0.163846 0.928474 0.642551 0.146614
H86   H     H_    0.187054 0.978431 0.621159 0.114156
H87   H     H_    0.240022 0.903631 0.667921 0.188868
H88   H     H_    0.261952 0.956268 0.649782 0.192372
H89   H     H_    0.210946 0.995935 0.701690 0.144521
H90   H     H_    0.552611 0.047599 0.138383 0.153036
H91   H     H_    0.246419 0.957185 0.730345 0.147584
H92   H     H_    0.189135 0.943168 0.720421 0.144695
H93   H     H_    0.642606 0.928585 0.836158 0.146595
H94   H     H_    0.621178 0.978526 0.812940 0.114151
H95   H     H_    0.667992 0.903750 0.759984 0.188859
H96   H     H_    0.649815 0.956373 0.738043 0.192370
H97   H     H_    0.701696 0.996088 0.789046 0.144513
H98   H     H_    0.730377 0.957346 0.753583 0.147585
H99   H     H_    0.720461 0.943334 0.810875 0.144680
H100  H     H_    0.836154 0.071527 0.642551 0.146618
H101  H     H_    0.138381 0.047639 0.447429 0.153015
H102  H     H_    0.812948 0.021570 0.621158 0.114161
H103  H     H_    0.759978 0.096365 0.667921 0.188874
H104  H     H_    0.738051 0.043728 0.649781 0.192370
H105  H     H_    0.789058 0.004064 0.701689 0.144525
H106  H     H_    0.753584 0.042811 0.730345 0.147586
H107  H     H_    0.810867 0.056831 0.720421 0.144696
H108  H     H_    0.357393 0.071416 0.836158 0.146595
H109  H     H_    0.378822 0.021475 0.812941 0.114151
H110  H     H_    0.332008 0.096249 0.759982 0.188860
H111  H     H_    0.350185 0.043625 0.738042 0.192368
H112  H     H_    0.047600 0.861617 0.447390 0.153036
H113  H     H_    0.447391 0.047601 0.861617 0.153035
H114  H     H_    0.298304 0.003912 0.789047 0.144513
H115  H     H_    0.269623 0.042652 0.753582 0.147585
H116  H     H_    0.279538 0.056666 0.810874 0.144679
H117  H     H_    0.163846 0.071532 0.357450 0.146611
H118  H     H_    0.187050 0.021572 0.378841 0.114152
H119  H     H_    0.240028 0.096372 0.332085 0.188869
H120  H     H_    0.261953 0.043729 0.350220 0.192358
H121  H     H_    0.210942 0.004070 0.298306 0.144514
H122  H     H_    0.246422 0.042821 0.269656 0.147582
H123  H     H_    0.189135 0.056844 0.279580 0.144690
H124  H     H_    0.861618 0.952361 0.447428 0.153014
H125  H     H_    0.642610 0.071412 0.163843 0.146598
H126  H     H_    0.621179 0.021470 0.187055 0.114153
H127  H     H_    0.667994 0.096237 0.240022 0.188865
H128  H     H_    0.649815 0.043611 0.261955 0.192362
H129  H     H_    0.701697 0.003903 0.210947 0.144513
H130  H     H_    0.730378 0.042636 0.246418 0.147584
H131  H     H_    0.720465 0.056659 0.189128 0.144681
H132  H     H_    0.428473 0.142553 0.663846 0.146611
H133  H     H_    0.478432 0.121159 0.687051 0.114152
H134  H     H_    0.403634 0.167919 0.740028 0.188869
H135  H     H_    0.552609 0.952399 0.861617 0.153036
H136  H     H_    0.456276 0.149781 0.761953 0.192359
H137  H     H_    0.495937 0.201692 0.710943 0.144516
H138  H     H_    0.457188 0.230345 0.746422 0.147581
H139  H     H_    0.443165 0.220422 0.689136 0.144690
H140  H     H_    0.428585 0.336154 0.142614 0.146599
H141  H     H_    0.478529 0.312951 0.121177 0.114152
H142  H     H_    0.403772 0.259968 0.167992 0.188879
H143  H     H_    0.456402 0.238045 0.149809 0.192348
H144  H     H_    0.496102 0.289058 0.201694 0.144512
H145  H     H_    0.457378 0.253576 0.230373 0.147584
H146  H     H_    0.138382 0.952361 0.552571 0.153015
H147  H     H_    0.443343 0.310864 0.220466 0.144680
H148  H     H_    0.428465 0.857451 0.336154 0.146608
H149  H     H_    0.478427 0.878840 0.312949 0.114147
H150  H     H_    0.403624 0.832086 0.259971 0.188866
H151  H     H_    0.456269 0.850220 0.238046 0.192357
H152  H     H_    0.495927 0.798305 0.289058 0.144510
H153  H     H_    0.457175 0.769656 0.253577 0.147581
H154  H     H_    0.443151 0.779580 0.310864 0.144689
H155  H     H_    0.428585 0.663842 0.857393 0.146592
H156  H     H_    0.478527 0.687059 0.878821 0.114147
H157  H     H_    0.447390 0.952400 0.138383 0.153035
H158  H     H_    0.403751 0.740018 0.832008 0.188860
H159  H     H_    0.456375 0.761958 0.850186 0.192368
H160  H     H_    0.496090 0.710954 0.798304 0.144509
H161  H     H_    0.457348 0.746419 0.769623 0.147584
H162  H     H_    0.443335 0.689126 0.779538 0.144678
H163  H     H_    0.571525 0.857447 0.663847 0.146611
H164  H     H_    0.521567 0.878840 0.687052 0.114153
H165  H     H_    0.596365 0.832080 0.740027 0.188868
H166  H     H_    0.543725 0.850219 0.761953 0.192361
H167  H     H_    0.504061 0.798308 0.710944 0.144516
H168  H     H_    0.547638 0.947427 0.638382 0.153016
H169  H     H_    0.542811 0.769655 0.746422 0.147582
H170  H     H_    0.556832 0.779578 0.689136 0.144690
H171  H     H_    0.571419 0.663846 0.142613 0.146599
H172  H     H_    0.521473 0.687048 0.121177 0.114151
H173  H     H_    0.596231 0.740032 0.167991 0.188876
H174  H     H_    0.543601 0.761955 0.149809 0.192348
H175  H     H_    0.503901 0.710941 0.201694 0.144512
H176  H     H_    0.542626 0.746424 0.230372 0.147585
H177  H     H_    0.556662 0.689136 0.220466 0.144679
H178  H     H_    0.571536 0.142549 0.336154 0.146604
H179  H     H_    0.547600 0.361616 0.947390 0.153036
H180  H     H_    0.521573 0.121160 0.312949 0.114142
H181  H     H_    0.596379 0.167911 0.259969 0.188861
H182  H     H_    0.543733 0.149779 0.238043 0.192351
H183  H     H_    0.504074 0.201697 0.289055 0.144504
H184  H     H_    0.542830 0.230343 0.253573 0.147578
H185  H     H_    0.556853 0.220419 0.310863 0.144686
H186  H     H_    0.571412 0.336159 0.857393 0.146592
H187  H     H_    0.521471 0.312939 0.878821 0.114148
H188  H     H_    0.596249 0.259984 0.832007 0.188859
H189  H     H_    0.543625 0.238041 0.850184 0.192371
H190  H     H_    0.547639 0.052572 0.361619 0.153014
H191  H     H_    0.503909 0.289045 0.798303 0.144510
H192  H     H_    0.542651 0.253582 0.769622 0.147584
H193  H     H_    0.556663 0.310875 0.779537 0.144679
H194  H     H_    0.142550 0.336155 0.571532 0.146603
H195  H     H_    0.121160 0.312948 0.521570 0.114142
H196  H     H_    0.167915 0.259972 0.596376 0.188858
H197  H     H_    0.149781 0.238042 0.543732 0.192356
H198  H     H_    0.201695 0.289053 0.504069 0.144506
H199  H     H_    0.230344 0.253574 0.542823 0.147577
H200  H     H_    0.220421 0.310864 0.556844 0.144686
H201  H     H_    0.547600 0.638383 0.052610 0.153035
H202  H     H_    0.336156 0.857390 0.571417 0.146600
H203  H     H_    0.312947 0.878823 0.521475 0.114154
H204  H     H_    0.259974 0.832009 0.596238 0.188877
H205  H     H_    0.238045 0.850189 0.543611 0.192357
H206  H     H_    0.289054 0.798305 0.503907 0.144514
H207  H     H_    0.253580 0.769626 0.542639 0.147587
H208  H     H_    0.310869 0.779537 0.556665 0.144681
H209  H     H_    0.857451 0.663846 0.571533 0.146605
H210  H     H_    0.878840 0.687052 0.521572 0.114144
H211  H     H_    0.832086 0.740028 0.596377 0.188860
H212  H     H_    0.452362 0.052573 0.638382 0.153015
H213  H     H_    0.850220 0.761956 0.543733 0.192358
H214  H     H_    0.798306 0.710946 0.504071 0.144508
H215  H     H_    0.769657 0.746425 0.542824 0.147579
H216  H     H_    0.779580 0.689136 0.556845 0.144688
H217  H     H_    0.663844 0.142610 0.571417 0.146598
H218  H     H_    0.687055 0.121178 0.521474 0.114151
H219  H     H_    0.740024 0.167991 0.596242 0.188872
H220  H     H_    0.761956 0.149812 0.543615 0.192360
H221  H     H_    0.710949 0.201695 0.503908 0.144513
H222  H     H_    0.746420 0.230375 0.542643 0.147586
H223  H     H_    0.047641 0.552570 0.861619 0.153013
H224  H     H_    0.452399 0.638383 0.947390 0.153036
H225  H     H_    0.689130 0.220463 0.556666 0.144680
H226  H     H_    0.857447 0.336153 0.428472 0.146614
H227  H     H_    0.878840 0.312949 0.478431 0.114155
H228  H     H_    0.832081 0.259972 0.403635 0.188874
H229  H     H_    0.850219 0.238049 0.456276 0.192359
H230  H     H_    0.798307 0.289059 0.495935 0.144518
H231  H     H_    0.769655 0.253580 0.457186 0.147583
H232  H     H_    0.779578 0.310865 0.443163 0.144692
H233  H     H_    0.663843 0.857389 0.428584 0.146593
H234  H     H_    0.687052 0.878822 0.478529 0.114147
H235  H     H_    0.452361 0.947428 0.361618 0.153014
H236  H     H_    0.740026 0.832007 0.403762 0.188862
H237  H     H_    0.761958 0.850188 0.456390 0.192355
H238  H     H_    0.710947 0.798305 0.496099 0.144508
H239  H     H_    0.746423 0.769626 0.457367 0.147582
H240  H     H_    0.689131 0.779535 0.443341 0.144677
H241  H     H_    0.142552 0.663847 0.428470 0.146615
H242  H     H_    0.121159 0.687050 0.478429 0.114155
H243  H     H_    0.167916 0.740029 0.403633 0.188874
H244  H     H_    0.149780 0.761951 0.456276 0.192357
H245  H     H_    0.201693 0.710940 0.495932 0.144518
H246  H     H_    0.452401 0.361616 0.052610 0.153036
H247  H     H_    0.230344 0.746420 0.457184 0.147584
H248  H     H_    0.220420 0.689135 0.443159 0.144692
H249  H     H_    0.336156 0.142610 0.428585 0.146593
H250  H     H_    0.312946 0.121178 0.478529 0.114148
H251  H     H_    0.259975 0.167993 0.403761 0.188861
H252  H     H_    0.238042 0.149812 0.456388 0.192357
H253  H     H_    0.289052 0.201695 0.496098 0.144508
H254  H     H_    0.253577 0.230375 0.457366 0.147582
H255  H     H_    0.310869 0.220465 0.443341 0.144678
H256  H     H_    0.336153 0.428468 0.857449 0.146601
H257  H     H_    0.947428 0.361618 0.452361 0.153015
H258  H     H_    0.312947 0.478430 0.878839 0.114140
H259  H     H_    0.259968 0.403623 0.832087 0.188858
H260  H     H_    0.238041 0.456269 0.850220 0.192352
H261  H     H_    0.289052 0.495930 0.798303 0.144502
H262  H     H_    0.253570 0.457174 0.769656 0.147576
H263  H     H_    0.310861 0.443152 0.779579 0.144684
H264  H     H_    0.857386 0.428585 0.663845 0.146598
H265  H     H_    0.878822 0.478529 0.687049 0.114150
H266  H     H_    0.832008 0.403771 0.740031 0.188878
H267  H     H_    0.850190 0.456401 0.761955 0.192347
H268  H     H_    0.361616 0.052610 0.452401 0.153036
H269  H     H_    0.798306 0.496102 0.710941 0.144510
H270  H     H_    0.769627 0.457376 0.746423 0.147583
H271  H     H_    0.779534 0.443341 0.689134 0.144679
H272  H     H_    0.663846 0.428473 0.142551 0.146616
H273  H     H_    0.687052 0.478431 0.121159 0.114157
H274  H     H_    0.740024 0.403634 0.167921 0.188872
H275  H     H_    0.761950 0.456272 0.149782 0.192368
H276  H     H_    0.710941 0.495935 0.201691 0.144522
H277  H     H_    0.746417 0.457188 0.230346 0.147584
H278  H     H_    0.689133 0.443167 0.220421 0.144694
H279  H     H_    0.052571 0.638381 0.452361 0.153014
H280  H     H_    0.142607 0.428582 0.336157 0.146594
H281  H     H_    0.121177 0.478524 0.312943 0.114150
H282  H     H_    0.167990 0.403752 0.259979 0.188863
H283  H     H_    0.149812 0.456378 0.238042 0.192364
H284  H     H_    0.201694 0.496089 0.289048 0.144511
H285  H     H_    0.230374 0.457351 0.253580 0.147585
H286  H     H_    0.220461 0.443333 0.310872 0.144678
H287  H     H_    0.336154 0.571527 0.142552 0.146615
H288  H     H_    0.312949 0.521569 0.121159 0.114157
H289  H     H_    0.259976 0.596364 0.167921 0.188873
H290  H     H_    0.638383 0.947389 0.452401 0.153035
H291  H     H_    0.238050 0.543725 0.149782 0.192365
H292  H     H_    0.289060 0.504063 0.201691 0.144522
H293  H     H_    0.253583 0.542811 0.230345 0.147584
H294  H     H_    0.310867 0.556833 0.220421 0.144693
H295  H     H_    0.857393 0.571420 0.336157 0.146595
H296  H     H_    0.878823 0.521476 0.312945 0.114150
H297  H     H_    0.832010 0.596247 0.259977 0.188864
H298  H     H_    0.850188 0.543620 0.238043 0.192361
H299  H     H_    0.798305 0.503911 0.289050 0.144511
H300  H     H_    0.769626 0.542648 0.253579 0.147585
H301  H     H_    0.052573 0.361618 0.547638 0.153015
H302  H     H_    0.779538 0.556668 0.310871 0.144678
H303  H     H_    0.663846 0.571533 0.857450 0.146603
H304  H     H_    0.687052 0.521570 0.878840 0.114141
H305  H     H_    0.740031 0.596378 0.832088 0.188859
H306  H     H_    0.761958 0.543732 0.850220 0.192352
H307  H     H_    0.710947 0.504071 0.798303 0.144503
H308  H     H_    0.746428 0.542828 0.769656 0.147577
H309  H     H_    0.689137 0.556849 0.779580 0.144685
H310  H     H_    0.142613 0.571412 0.663844 0.146596
H311  H     H_    0.121179 0.521469 0.687053 0.114149
H312  H     H_    0.638383 0.052609 0.547601 0.153035
H313  H     H_    0.167994 0.596233 0.740027 0.188868
H314  H     H_    0.149813 0.543605 0.761957 0.192355
H315  H     H_    0.201696 0.503898 0.710946 0.144509
H316  H     H_    0.230376 0.542629 0.746422 0.147582
H317  H     H_    0.220466 0.556656 0.689132 0.144679
H318  H     H_    0.947428 0.638382 0.547639 0.153014
H319  H     H_    0.047600 0.138383 0.552610 0.153035
H320  H     H_    0.361617 0.947391 0.547601 0.153035
H321  H     H_    0.361618 0.547639 0.052572 0.153015
H322  H     H_    0.052612 0.547598 0.638384 0.153036
H323  H     H_    0.638382 0.547638 0.947427 0.153015
H324  H     H_    0.947392 0.547602 0.361617 0.153034
H325  H     H_    0.361618 0.452363 0.947427 0.153015
H326  H     H_    0.052608 0.452398 0.361617 0.153035
H327  H     H_    0.638382 0.452361 0.052572 0.153014
H328  H     H_    0.947389 0.452401 0.638383 0.153036
H329  H     H_    0.928476 0.642553 0.163846 0.146615
H330  H     H_    0.952362 0.552573 0.138381 0.153015
H331  H     H_    0.978433 0.621159 0.187052 0.114157
H332  H     H_    0.903637 0.667922 0.240024 0.188871
H333  H     H_    0.956275 0.649782 0.261951 0.192366
H334  H     H_    0.995939 0.701691 0.210943 0.144521
H335  H     H_    0.957192 0.730345 0.246418 0.147583
H336  H     H_    0.943171 0.720422 0.189134 0.144694
H337  H     H_    0.928586 0.836156 0.642612 0.146600
H338  H     H_    0.978528 0.812948 0.621178 0.114155
H339  H     H_    0.903767 0.759975 0.667993 0.188872
H340  H     H_    0.956394 0.738046 0.649813 0.192358
H341  H     H_    0.952399 0.138383 0.447391 0.153036
H342  H     H_    0.996098 0.789056 0.701695 0.144515
H343  H     H_    0.957369 0.753581 0.730376 0.147586
H344  H     H_    0.943341 0.810870 0.720465 0.144682
H345  H     H_    0.928464 0.357452 0.836153 0.146616
H346  H     H_    0.978424 0.378842 0.812951 0.114156
H347  H     H_    0.903627 0.332085 0.759973 0.188873
H348  H     H_    0.956269 0.350221 0.738050 0.192362
H349  H     H_    0.995926 0.298309 0.789061 0.144519
H350  H     H_    0.957179 0.269657 0.753582 0.147584
H351  H     H_    0.943155 0.279581 0.810865 0.144694
H352  H     H_    0.952359 0.447430 0.861618 0.153013
H353  H     H_    0.928586 0.163841 0.357395 0.146594
H354  H     H_    0.978526 0.187061 0.378821 0.114149
H355  H     H_    0.903747 0.240014 0.332008 0.188856
H356  H     H_    0.956370 0.261958 0.350183 0.192374
H357  H     H_    0.996086 0.210956 0.298302 0.144512
H358  H     H_    0.957341 0.246416 0.269621 0.147585
H359  H     H_    0.943333 0.189123 0.279539 0.144680
H360  H     H_    0.071523 0.357447 0.163846 0.146615
H361  H     H_    0.021566 0.378841 0.187053 0.114158
H362  H     H_    0.096363 0.332078 0.240024 0.188872
H363  H     H_    0.952400 0.861617 0.552610 0.153036
H364  H     H_    0.043725 0.350218 0.261951 0.192368
H365  H     H_    0.004060 0.298309 0.210944 0.144522
H366  H     H_    0.042808 0.269654 0.246418 0.147584
H367  H     H_    0.056828 0.279578 0.189134 0.144694
H368  H     H_    0.071417 0.163844 0.642610 0.146599
H369  H     H_    0.021474 0.187052 0.621177 0.114154
H370  H     H_    0.096236 0.240026 0.667992 0.188869
H371  H     H_    0.043609 0.261954 0.649812 0.192357
H372  H     H_    0.003905 0.210944 0.701695 0.144514
H373  H     H_    0.042634 0.246419 0.730375 0.147586
H374  H     H_    0.447429 0.861618 0.952360 0.153014
H375  H     H_    0.056662 0.189130 0.720464 0.144681
H376  H     H_    0.071537 0.642548 0.836153 0.146613
H377  H     H_    0.021576 0.621158 0.812951 0.114152
H378  H     H_    0.096375 0.667912 0.759971 0.188871
H379  H     H_    0.043731 0.649778 0.738048 0.192357
H380  H     H_    0.004075 0.701693 0.789060 0.144515
H381  H     H_    0.042825 0.730342 0.753579 0.147583
H382  H     H_    0.056849 0.720418 0.810864 0.144691
H383  H     H_    0.071411 0.836160 0.357394 0.146591
H384  H     H_    0.021471 0.812936 0.378820 0.114147
O1    O     O_R   0.962420 0.435100 0.500010 -0.512246
O2    O     O_R   0.499990 0.564900 0.037580 -0.512256
O3    O     O_R   0.564900 0.500010 0.037580 -0.512246
O4    O     O_R   0.500010 0.435100 0.037580 -0.512256
O5    O     O_R   0.564900 0.499990 0.962420 -0.512247
O6    O     O_R   0.500010 0.564900 0.962420 -0.512256
O7    O     O_R   0.435100 0.500010 0.962420 -0.512247
O8    O     O_R   0.499990 0.435100 0.962420 -0.512255
O9    O     O_R   0.499990 0.962420 0.564900 -0.512247
O10   O     O_R   0.564900 0.962420 0.500010 -0.512256
O11   O     O_R   0.500010 0.962420 0.435100 -0.512246
O12   O     O_R   0.962420 0.499990 0.435100 -0.512255
O13   O     O_R   0.435100 0.962420 0.499990 -0.512255
O14   O     O_R   0.499990 0.037580 0.435100 -0.512246
O15   O     O_R   0.564900 0.037580 0.499990 -0.512255
O16   O     O_R   0.500010 0.037580 0.564900 -0.512247
O17   O     O_R   0.435100 0.037580 0.500010 -0.512256
O18   O     O_R   0.462420 0.935100 0.000010 -0.512246
O19   O     O_R   0.462420 0.999990 0.935100 -0.512255
O20   O     O_R   0.462420 0.064900 0.999990 -0.512247
O21   O     O_R   0.462420 0.000010 0.064900 -0.512256
O22   O     O_R   0.537580 0.064900 0.000010 -0.512246
O23   O     O_R   0.962420 0.564900 0.499990 -0.512247
O24   O     O_R   0.537580 0.000010 0.935100 -0.512255
O25   O     O_R   0.537580 0.935100 0.999990 -0.512247
O26   O     O_R   0.537580 0.999990 0.064900 -0.512256
O27   O     O_R   0.935100 0.999990 0.537580 -0.512246
O28   O     O_R   0.999990 0.064900 0.537580 -0.512256
O29   O     O_R   0.064900 0.000010 0.537580 -0.512246
O30   O     O_R   0.000010 0.935100 0.537580 -0.512255
O31   O     O_R   0.064900 0.999990 0.462420 -0.512247
O32   O     O_R   0.000010 0.064900 0.462420 -0.512255
O33   O     O_R   0.935100 0.000010 0.462420 -0.512247
O34   O     O_R   0.962420 0.500010 0.564900 -0.512256
O35   O     O_R   0.999990 0.935100 0.462420 -0.512256
O36   O     O_R   0.999990 0.462420 0.064900 -0.512247
O37   O     O_R   0.064900 0.462420 0.000010 -0.512256
O38   O     O_R   0.000010 0.462420 0.935100 -0.512246
O39   O     O_R   0.935100 0.462420 0.999990 -0.512255
O40   O     O_R   0.999990 0.537580 0.935100 -0.512246
O41   O     O_R   0.064900 0.537580 0.999990 -0.512255
O42   O     O_R   0.000010 0.537580 0.064900 -0.512247
O43   O     O_R   0.935100 0.537580 0.000010 -0.512256
O44   O     O_3   0.918002 0.589547 0.204785 -0.577201
O45   O     O_R   0.037580 0.564900 0.500010 -0.512246
O46   O     O_3   0.918071 0.795214 0.589612 -0.577197
O47   O     O_3   0.917996 0.410459 0.795215 -0.577201
O48   O     O_3   0.918067 0.204786 0.410391 -0.577193
O49   O     O_3   0.081998 0.410453 0.204785 -0.577201
O50   O     O_3   0.081931 0.204786 0.589611 -0.577198
O51   O     O_3   0.082005 0.589540 0.795215 -0.577203
O52   O     O_3   0.081931 0.795214 0.410390 -0.577193
O53   O     O_3   0.589543 0.795215 0.082003 -0.577201
O54   O     O_3   0.795214 0.410391 0.081933 -0.577191
O55   O     O_3   0.410458 0.204785 0.082003 -0.577200
O56   O     O_R   0.037580 0.500010 0.435100 -0.512255
O57   O     O_3   0.204786 0.589609 0.081933 -0.577191
O58   O     O_3   0.410454 0.795215 0.918000 -0.577202
O59   O     O_3   0.204786 0.410389 0.918070 -0.577200
O60   O     O_3   0.589544 0.204785 0.917999 -0.577203
O61   O     O_3   0.795214 0.589611 0.918070 -0.577199
O62   O     O_3   0.795215 0.917998 0.410457 -0.577203
O63   O     O_3   0.410388 0.918070 0.204786 -0.577196
O64   O     O_3   0.204786 0.918000 0.589545 -0.577199
O65   O     O_3   0.589609 0.918067 0.795214 -0.577194
O66   O     O_3   0.795215 0.082000 0.589545 -0.577200
O67   O     O_R   0.037580 0.435100 0.499990 -0.512247
O68   O     O_3   0.410391 0.081933 0.795214 -0.577193
O69   O     O_3   0.204785 0.082002 0.410457 -0.577204
O70   O     O_3   0.589612 0.081929 0.204787 -0.577199
O71   O     O_3   0.418001 0.089546 0.704785 -0.577202
O72   O     O_3   0.418071 0.295214 0.089613 -0.577192
O73   O     O_3   0.417997 0.910458 0.295215 -0.577201
O74   O     O_3   0.418068 0.704786 0.910390 -0.577188
O75   O     O_3   0.581998 0.910453 0.704785 -0.577202
O76   O     O_3   0.581930 0.704786 0.089612 -0.577194
O77   O     O_3   0.582004 0.089541 0.295215 -0.577203
O78   O     O_R   0.037580 0.499990 0.564900 -0.512256
O79   O     O_3   0.581931 0.295214 0.910390 -0.577189
O80   O     O_3   0.089543 0.295215 0.582002 -0.577201
O81   O     O_3   0.295214 0.910389 0.581931 -0.577192
O82   O     O_3   0.910458 0.704785 0.582003 -0.577200
O83   O     O_3   0.704786 0.089610 0.581932 -0.577190
O84   O     O_3   0.910454 0.295215 0.418001 -0.577204
O85   O     O_3   0.704786 0.910389 0.418070 -0.577194
O86   O     O_3   0.089545 0.704785 0.417999 -0.577205
O87   O     O_3   0.295214 0.089611 0.418070 -0.577194
O88   O     O_3   0.295215 0.417998 0.910457 -0.577204
O89   O     O_R   0.435100 0.499990 0.037580 -0.512246
O90   O     O_3   0.910387 0.418071 0.704786 -0.577191
O91   O     O_3   0.704785 0.418000 0.089546 -0.577199
O92   O     O_3   0.089608 0.418067 0.295214 -0.577191
O93   O     O_3   0.295215 0.581999 0.089546 -0.577200
O94   O     O_3   0.910391 0.581934 0.295214 -0.577191
O95   O     O_3   0.704785 0.582002 0.910458 -0.577204
O96   O     O_3   0.089614 0.581928 0.704787 -0.577193

loop_
_geom_bond_atom_site_label_1
_geom_bond_atom_site_label_2
_ccdc_geom_bond_type
C57   O20   A    
C3    C224  A    
C135  O37   A    
C146  O40   A    
C256  H236  S    
C106  O72   S    
C262  O87   S    
C157  O43   A    
Cu2   O33   S    
C166  H26   S    
C108  O74   S    
C33   C114  A    
C6    C85   A    
C164  H20   S    
C259  H242  S    
C326  H324  S    
C78   C129  A    
C258  H239  S    
C9    C88   A    
C156  H4    S    
C262  H249  S    
C267  H262  S    
C210  H130  S    
C143  C144  S    
C220  H152  S    
C251  H222  S    
C154  H380  S    
C233  H181  S    
C197  H97   S    
C254  H231  S    
C177  H52   S    
C194  H89   S    
C288  H310  S    
C182  C183  S    
C34   C319  A    
C255  H234  S    
C17   C61   A    
C234  H184  S    
C23   C103  A    
C152  H377  S    
C275  C276  S    
C41   C316  A    
C19   C63   A    
C272  C273  S    
C25   C298  A    
C14   C290  A    
C29   C108  A    
C176  C177  S    
C283  H297  S    
C113  O35   A    
C223  O23   A    
C36   C71   A    
C200  H106  S    
C2    O15   A    
Cu10  O18   S    
C154  H381  S    
C199  C200  S    
C178  H54   S    
C1    O67   A    
C101  O29   A    
Cu8   O9    S    
C148  H367  S    
C283  H298  S    
C6    C54   A    
C96   C120  A    
C282  H296  S    
C228  H169  S    
C160  H11   S    
Cu8   Cu9   S    
C234  H185  S    
C29   C69   A    
C226  H163  S    
C288  O96   S    
C327  C354  A    
C103  O69   S    
C306  C354  S    
C280  H289  S    
C207  H121  S    
C316  H279  S    
C48   C74   A    
C125  O90   S    
C271  H271  S    
C140  C141  S    
C229  H171  S    
C310  C345  A    
C305  C345  A    
C51   C131  A    
C206  C207  S    
C294  H57   S    
Cu9   O15   S    
C46   O19   A    
C221  O74   S    
C20   C302  A    
C4    C168  A    
C196  H96   S    
C113  O30   A    
C13   O14   A    
C229  C230  S    
C50   C76   A    
C339  O8    A    
C68   C342  S    
C175  C176  S    
C137  H340  S    
C230  H174  S    
C28   C67   A    
C86   C121  A    
C168  H1    S    
C187  H76   S    
C142  H353  S    
C17   C96   A    
C261  H245  S    
C280  C281  S    
Cu7   O6    S    
C132  H331  S    
C142  H354  S    
C130  O95   S    
C169  H32   S    
C219  H151  S    
C118  O83   S    
C316  C352  A    
C54   C360  A    
C50   C325  A    
C191  H83   S    
C57   O22   A    
C251  H225  S    
C185  O62   S    
C295  O78   A    
C308  H190  S    
C99   O65   S    
C114  O79   S    
C7    C53   A    
C52   C77   A    
C220  H154  S    
C167  H28   S    
C163  H18   S    
C165  H23   S    
C21   C61   A    
C274  H278  S    
C339  C346  S    
C205  C206  S    
C80   C117  A    
C187  H74   S    
Cu4   O41   S    
C143  H356  S    
C92   O58   S    
C171  H37   S    
C164  H22   S    
C296  C337  A    
C314  C349  A    
C90   O28   A    
C168  C332  A    
C94   O60   S    
C196  C197  S    
C113  C333  S    
C122  O87   S    
C165  O55   S    
C190  H223  S    
Cu12  O27   S    
C297  C341  A    
C183  H64   S    
C305  H168  S    
C222  C225  S    
C264  H254  S    
C146  C334  S    
C149  H369  S    
C156  C158  S    
C188  H78   S    
C59   C66   A    
C27   C66   A    
C136  O46   S    
C85   C131  A    
Cu1   O34   S    
C83   O49   S    
C285  H304  S    
C132  O44   S    
C20   C99   A    
C124  C332  S    
Cu3   O36   S    
C12   C56   A    
C31   C110  A    
C298  H90   S    
C25   C62   A    
C101  C343  S    
C306  O7    A    
C281  H293  S    
C195  C196  S    
C97   C107  A    
C11   C91   A    
C37   C117  A    
C91   O57   S    
C195  H94   S    
C133  H333  S    
C193  C194  S    
Cu2   Cu12  S    
C155  C156  S    
C257  C336  A    
C101  O31   A    
Cu8   O11   S    
C287  H309  S    
C328  C356  S    
C186  C187  S    
C190  C334  A    
C243  C244  S    
C206  H119  S    
C44   C331  A    
C197  H99   S    
C280  H291  S    
C62   C67   A    
C104  O70   S    
C147  C148  S    
C271  H269  S    
C238  H192  S    
C175  H47   S    
C161  H15   S    
C15   C94   A    
C139  O47   S    
Cu10  Cu11  S    
C58   C76   A    
C213  H134  S    
C87   C110  A    
Cu9   O17   S    
Cu11  O24   S    
C288  H311  S    
C145  H360  S    
C249  C250  S    
C311  C348  A    
C221  H156  S    
C109  O75   S    
C21   C297  A    
C184  H67   S    
C49   C326  A    
C5    C201  A    
C253  C254  S    
C38   C73   A    
C112  O12   A    
C7    C86   A    
C84   O50   S    
C170  C171  S    
C186  H72   S    
C201  H319  S    
C236  H187  S    
C227  H165  S    
C245  H209  S    
C158  H7    S    
C178  O60   S    
C215  H141  S    
C261  H247  S    
C277  H286  S    
C131  O96   S    
C189  C191  S    
C42   C71   A    
C318  H290  S    
C162  H17   S    
C214  H139  S    
C3    C55   A    
C250  H219  S    
C92   C108  A    
C321  C352  A    
C267  H263  S    
C199  H104  S    
C182  H62   S    
C10   C89   A    
C256  C258  S    
C95   C130  A    
C232  O77   S    
C135  O41   A    
C241  H198  S    
Cu1   O23   S    
C194  H92   S    
C233  C234  S    
C252  O84   S    
C14   C93   A    
C270  H266  S    
C157  O39   A    
C291  H315  S    
C155  H384  S    
C212  C332  A    
C204  H115  S    
C329  C357  A    
Cu5   O78   S    
C282  O94   S    
Cu4   O43   S    
C237  C238  S    
C295  O34   A    
C209  H127  S    
C185  H70   S    
C299  H101  S    
C315  C351  A    
C35   O25   A    
C140  H348  S    
C331  C355  A    
C215  H140  S    
C121  O86   S    
C135  C340  S    
C51   C324  A    
C211  H133  S    
Cu12  O29   S    
C272  H272  S    
C139  C140  S    
C44   C125  A    
C192  O64   S    
C313  C346  A    
C153  H379  S    
C98   O64   S    
C152  O51   S    
C148  H366  S    
C278  H287  S    
C286  H305  S    
C160  H10   S    
C5    C84   A    
C225  H161  S    
C18   C62   A    
C330  C356  A    
C216  H143  S    
C34   C115  A    
C172  H39   S    
C203  H110  S    
C79   O27   A    
C173  H42   S    
Cu6   O3    S    
C89   C106  A    
C301  C341  A    
C317  O2    A    
C144  H358  S    
C221  C222  S    
C242  H202  S    
C139  H346  S    
C202  H108  S    
C81   O47   S    
C138  H343  S    
C45   C126  A    
Cu3   Cu4   S    
C198  H100  S    
C33   C66   A    
C309  C348  A    
C209  C210  S    
Cu11  O26   S    
C240  H196  S    
Cu5   O45   S    
C182  H63   S    
C177  H53   S    
C116  O81   S    
C47   C329  A    
C136  H337  S    
C193  H88   S    
C82   O48   S    
C32   C67   A    
C328  O3    A    
C46   O24   A    
C134  H335  S    
C231  H177  S    
Cu6   O89   S    
C170  H34   S    
C36   C322  A    
Cu10  O21   S    
C33   C307  A    
C12   C257  A    
C345  C350  S    
Cu7   O7    S    
C90   C335  S    
C241  H199  S    
C260  H243  S    
C141  H349  S    
C35   C336  S    
C284  H300  S    
C40   C318  A    
C263  H252  S    
C167  H30   S    
C213  H136  S    
C149  H368  S    
C34   C70   A    
C269  O90   S    
C320  C353  A    
C266  H259  S    
C81   C125  A    
C142  C143  S    
C196  H95   S    
C307  H179  S    
C198  O66   S    
C22   C300  A    
C181  H60   S    
C83   C127  A    
C136  C137  S    
C339  O4    A    
C273  H275  S    
C317  C348  S    
C292  H35   S    
C47   C127  A    
C262  C263  S    
C14   C60   A    
C166  H27   S    
C187  H75   S    
Cu4   O40   S    
C158  H5    S    
C155  O52   S    
C151  H373  S    
C299  C343  A    
C259  H241  S    
C15   C279  A    
C313  H246  S    
C201  C335  A    
C301  H124  S    
C258  H240  S    
C297  H79   S    
C1    O1    A    
C235  C360  A    
C214  H137  S    
C103  C122  A    
C211  O71   S    
C282  H295  S    
C267  H261  S    
C249  H218  S    
C327  H325  S    
C39   C119  A    
C272  H273  S    
C251  H221  S    
C209  H128  S    
C240  C241  S    
C49   C77   A    
C27   C106  A    
C46   C344  S    
C183  H65   S    
C30   C65   A    
C159  H9    S    
C54   C75   A    
C181  H61   S    
C276  H282  S    
C31   C69   A    
C269  H265  S    
C208  H125  S    
C226  C227  S    
C27   C313  A    
C255  H233  S    
C283  C284  S    
C248  H215  S    
C47   C77   A    
C150  C151  S    
C252  C253  S    
C90   O32   A    
C152  C153  S    
C315  H268  S    
C300  C344  A    
C174  H45   S    
C314  H257  S    
C245  O82   S    
C259  C260  S    
C133  H332  S    
C155  H383  S    
C322  C351  A    
C252  H227  S    
C36   C116  A    
C211  H132  S    
C222  H158  S    
Cu10  O19   S    
C154  H382  S    
C204  H116  S    
C178  H55   S    
C279  C338  A    
C43   C123  A    
Cu8   O10   S    
C239  C240  S    
Cu5   O56   S    
C105  O71   S    
C124  O36   A    
C176  H50   S    
C263  C264  S    
C226  H164  S    
C213  C214  S    
C31   C309  A    
C289  H314  S    
Cu1   O1    S    
C231  H176  S    
C208  C209  S    
C325  H323  S    
C45   C76   A    
C247  H211  S    
C35   O18   A    
C32   C111  A    
C53   C359  A    
Cu9   O14   S    
C119  O84   S    
C99   C109  A    
C40   C73   A    
C26   C105  A    
C102  C105  A    
C11   C293  A    
C9    C58   A    
C164  H21   S    
C189  H81   S    
C169  O57   S    
Cu6   Cu7   S    
C43   C327  A    
C195  O65   S    
C172  H40   S    
C96   O62   S    
C244  H207  S    
Cu3   O39   S    
Cu2   O31   S    
C137  H339  S    
C277  H284  S    
C226  O75   S    
C296  H68   S    
C236  H186  S    
C24   O17   A    
C127  O92   S    
C298  C342  A    
C18   C97   A    
C128  O93   S    
Cu7   O5    S    
C141  H351  S    
C302  C344  A    
C223  C352  S    
C169  H31   S    
C10   C294  A    
C23   C63   A    
C269  C270  S    
C204  H114  S    
C8    C56   A    
C189  H80   S    
C309  H201  S    
C82   C119  A    
C111  O77   S    
C78   O44   S    
C145  C147  S    
C12   C92   A    
C159  H8    S    
C303  H146  S    
C142  O48   S    
C288  C289  S    
Cu4   O42   S    
C91   C128  A    
C148  H365  S    
C162  H16   S    
C278  O93   S    
C237  H189  S    
C310  H212  S    
C258  H238  S    
C1    C349  S    
C202  C203  S    
C219  C220  S    
C172  C173  S    
C192  H86   S    
C260  C261  S    
C224  C335  A    
C30   C109  A    
C210  H129  S    
C61   C73   A    
C250  C251  S    
Cu12  O28   S    
C232  H178  S    
C239  H194  S    
C276  H283  S    
C197  H98   S    
C254  H230  S    
C37   C321  A    
C81   C360  A    
C253  H229  S    
C291  H317  S    
C78   C358  A    
C68   O26   A    
C285  C286  S    
C220  H153  S    
C228  H170  S    
C48   C128  A    
C318  C353  A    
C205  O69   S    
C234  H183  S    
C285  H303  S    
C295  C355  S    
C159  C160  S    
C216  H142  S    
C246  C359  A    
C115  O80   S    
C151  H375  S    
C203  H111  S    
C242  C243  S    
C28   C312  A    
C237  H188  S    
C25   C104  A    
C112  O56   A    
C188  O63   S    
C157  C337  S    
C150  H371  S    
C324  H322  S    
C146  O38   A    
C184  H66   S    
C144  H359  S    
C281  H292  S    
C200  H105  S    
C264  H253  S    
C40   C120  A    
C172  O58   S    
C100  O66   S    
C195  H93   S    
C245  C247  S    
C292  C336  A    
C133  C134  S    
C253  H228  S    
C19   C303  A    
C88   O54   S    
C321  H318  S    
C23   C299  A    
C180  C181  S    
C206  H120  S    
C162  C163  S    
C179  H112  S    
Cu1   Cu5   S    
C275  H281  S    
C235  C334  A    
C323  H321  S    
C207  H122  S    
C57   C338  S    
C15   C59   A    
C93   O59   S    
C350  O16   A    
C171  H36   S    
C229  H172  S    
C287  H307  S    
C317  O6    A    
C22   C102  A    
C161  H14   S    
C178  C180  S    
C179  C333  A    
C215  O72   S    
Cu9   O16   S    
C291  H316  S    
C126  O91   S    
C228  H167  S    
C221  H155  S    
Cu11  O22   S    
C159  O53   S    
C64   C65   A    
C180  H56   S    
C10   C59   A    
C198  H102  S    
C89   O55   S    
C145  O49   S    
C149  C150  S    
C13   C347  S    
C185  C186  S    
Cu3   O37   S    
C4    C83   A    
C165  H25   S    
C306  O89   A    
C230  H173  S    
C26   C310  A    
C290  H24   S    
C232  C233  S    
C32   C308  A    
C268  C337  A    
C202  H109  S    
C38   C320  A    
C230  C231  S    
C192  H85   S    
C175  O59   S    
C302  H135  S    
C324  C355  A    
C217  H145  S    
C80   C359  A    
C22   C64   A    
C38   C118  A    
C325  C356  A    
C250  H220  S    
C199  H103  S    
C191  H84   S    
C350  O9    A    
C240  H197  S    
C269  H264  S    
C270  C271  S    
C308  C347  A    
C29   C311  A    
C246  H363  S    
C53   C72   A    
C322  H320  S    
C218  O73   S    
C270  H267  S    
C303  C343  A    
C45   C330  A    
C156  H3    S    
C277  H285  S    
C320  H312  S    
C274  H277  S    
C203  C204  S    
C227  H166  S    
C165  C166  S    
Cu8   O13   S    
C232  H180  S    
C171  H38   S    
C248  H214  S    
C169  C170  S    
C17   C301  A    
C163  C164  S    
C247  H213  S    
C257  H374  S    
C215  C216  S    
C229  O76   S    
C94   C114  A    
C326  C357  A    
C86   O52   S    
C252  H226  S    
C173  C174  S    
C236  C237  S    
C236  O79   S    
Cu12  O30   S    
C120  O85   S    
C255  O85   S    
C227  C228  S    
C153  H378  S    
C4    C52   A    
C210  H131  S    
C110  O76   S    
C30   C305  A    
C278  H288  S    
C188  H77   S    
C285  O95   S    
C307  C346  A    
C286  C287  S    
C235  H352  S    
C225  H160  S    
C13   O11   A    
C145  H361  S    
C28   C107  A    
Cu6   O4    S    
C85   O51   S    
C124  O42   A    
C79   C341  S    
C173  H41   S    
C279  H13   S    
C330  H327  S    
C41   C121  A    
C319  H301  S    
C259  O86   S    
C194  H91   S    
C249  O83   S    
C88   C126  A    
C242  H203  S    
C50   C130  A    
C323  C354  A    
C281  H294  S    
C265  H256  S    
C138  H344  S    
C225  H162  S    
C312  C347  A    
C151  H372  S    
C44   C75   A    
C254  H232  S    
C256  H237  S    
C242  O81   S    
C93   C123  A    
C42   C315  A    
Cu11  O25   S    
C177  H51   S    
C198  C199  S    
C265  O88   S    
C139  H345  S    
C265  C266  S    
C136  H338  S    
C193  H87   S    
C79   O33   A    
C262  H250  S    
C244  H206  S    
C167  H29   S    
C43   C74   A    
C134  H336  S    
C243  H205  S    
C294  C338  A    
C200  H107  S    
C37   C72   A    
C271  H270  S    
C290  C340  A    
C238  H191  S    
C175  H48   S    
C260  H244  S    
C287  H308  S    
C19   C98   A    
C263  H251  S    
C329  H326  S    
C48   C323  A    
C97   O63   S    
C266  H260  S    
C117  O82   S    
C163  H19   S    
C87   O53   S    
C180  H58   S    
C246  C333  A    
C216  C217  S    
C181  H59   S    
C233  H182  S    
C273  H274  S    
C21   C100  A    
C282  C283  S    
C132  C133  S    
C16   C58   A    
Cu2   O35   S    
Cu1   O12   S    
C311  H224  S    
C49   C129  A    
C24   O13   A    
C245  H210  S    
C158  H6    S    
C18   C304  A    
C188  C189  S    
Cu3   O38   S    
C261  H248  S    
C20   C64   A    
C312  H235  S    
C300  H113  S    
C183  C184  S    
C212  H330  S    
C217  H147  S    
C214  H138  S    
C219  H150  S    
C218  H148  S    
C98   C116  A    
C331  H328  S    
C191  H82   S    
C249  H217  S    
C102  O68   S    
C6    C190  A    
C3    C82   A    
C239  H195  S    
C273  C274  S    
C284  H302  S    
C276  C277  S    
Cu5   O67   S    
C217  H144  S    
C52   C358  A    
C68   O21   A    
C16   C268  A    
C134  H334  S    
C2    O10   A    
C41   C72   A    
C268  H2    S    
C174  H43   S    
C205  H118  S    
C211  C213  S    
C208  H126  S    
C56   C69   A    
C84   C115  A    
C166  C167  S    
C248  H216  S    
C278  C280  S    
C185  H71   S    
C8    C87   A    
C202  O68   S    
C243  H204  S    
C255  C256  S    
C140  H347  S    
C51   C75   A    
C218  H149  S    
C212  C358  A    
C184  H69   S    
C42   C122  A    
C143  H355  S    
C107  O73   S    
C8    C292  A    
C60   C74   A    
C222  H159  S    
Cu10  O20   S    
C16   C95   A    
C264  H255  S    
C129  O94   S    
C26   C65   A    
C5    C55   A    
C161  H12   S    
C112  C357  S    
C2    C353  S    
C63   C71   A    
C275  H280  S    
C162  O54   S    
C104  C111  A    
C247  C248  S    
C274  H276  S    
C152  H376  S    
C328  O5    A    
C149  O50   S    
C289  H313  S    
C137  C138  S    
C319  C349  A    
C231  H175  S    
C150  H370  S    
C182  O61   S    
C207  H123  S    
C239  O80   S    
C7    C179  A    
C272  O91   S    
C192  C193  S    
Cu6   O2    S    
C223  O45   A    
C153  C154  S    
C174  H44   S    
C144  H357  S    
C304  H157  S    
C265  H258  S    
C138  H342  S    
Cu2   O32   S    
C80   O46   S    
C218  C219  S    
C123  O88   S    
C186  H73   S    
C141  H350  S    
C205  H117  S    
C289  C291  S    
C39   C70   A    
C304  C342  A    
C284  H299  S    
C275  O92   S    
C160  C161  S    
C55   C70   A    
C266  C267  S    
C176  H49   S    
C244  H208  S    
C224  H341  S    
C100  C118  A    
C286  H306  S    
C24   C351  S    
C170  H33   S    
C208  O70   S    
C293  H46   S    
C147  H362  S    
C241  H200  S    
Cu7   O8    S    
C39   C314  A    
C132  H329  S    
C95   O61   S    
C9    C296  A    
C147  H364  S    
C11   C60   A    
C238  H193  S    
C293  C340  A    
