data_mof_unit_1281.cif
_audit_creation_date              2013-03-05T15:50:21-0500
_audit_creation_method            fapswitch 2.2
_symmetry_space_group_name_H-M    P1
_symmetry_Int_Tables_number       1
_space_group_crystal_system       triclinic
_cell_length_a                    18.402953
_cell_length_b                    25.80072
_cell_length_c                    18.266388
_cell_angle_alpha                 89.711136
_cell_angle_beta                  89.928277
_cell_angle_gamma                 90.78249
_cell_volume                      8672.12682026

loop_
_atom_site_label
_atom_site_type_symbol
_atom_site_description
_atom_site_fract_x
_atom_site_fract_y
_atom_site_fract_z
_atom_type_partial_charge
Zn1   Zn    Zn3+2 0.249990 0.293780 0.913250 0.937443
Zn2   Zn    Zn3+2 0.249990 0.706220 0.086750 0.942800
Zn3   Zn    Zn3+2 0.249990 0.706220 0.913250 0.949171
Zn4   Zn    Zn3+2 0.249990 0.293780 0.086750 0.946876
Zn5   Zn    Zn3+2 0.749990 0.793780 0.413250 0.945762
Zn6   Zn    Zn3+2 0.749990 0.206220 0.586750 0.926242
Zn7   Zn    Zn3+2 0.749990 0.206220 0.413250 0.949650
Zn8   Zn    Zn3+2 0.749990 0.793780 0.586750 0.945628
Zn9   Zn    Zn3+2 0.336760 0.206240 0.000000 0.963784
Zn10  Zn    Zn3+2 0.336760 0.793760 0.000000 0.948524
Zn11  Zn    Zn3+2 0.836760 0.706240 0.500000 0.952236
Zn12  Zn    Zn3+2 0.836760 0.293760 0.500000 0.939681
Zn13  Zn    Zn3+2 0.163250 0.206230 0.000000 0.937948
Zn14  Zn    Zn3+2 0.163250 0.793770 0.000000 0.948174
Zn15  Zn    Zn3+2 0.663250 0.706230 0.500000 0.933855
Zn16  Zn    Zn3+2 0.663250 0.293770 0.500000 0.955376
O1    O     O_3   0.249990 0.250010 0.000000 -0.477461
O2    O     O_3   0.249990 0.749990 0.000000 -0.482374
O3    O     O_3   0.749990 0.750010 0.500000 -0.481674
O4    O     O_3   0.749990 0.249990 0.500000 -0.478493
O5    O     O_R   0.335430 0.280650 0.146160 -0.637349
O6    O     O_R   0.335430 0.719350 0.853840 -0.635215
O7    O     O_R   0.335430 0.719350 0.146160 -0.638632
O8    O     O_R   0.335430 0.280650 0.853840 -0.666517
O9    O     O_R   0.835430 0.780650 0.646160 -0.634407
O10   O     O_R   0.835430 0.219350 0.353840 -0.639716
O11   O     O_R   0.835430 0.219350 0.646160 -0.650039
O12   O     O_R   0.835430 0.780650 0.353840 -0.639047
O13   O     O_R   0.164550 0.280640 0.853840 -0.650946
O14   O     O_R   0.164550 0.719360 0.146160 -0.649661
O15   O     O_R   0.164550 0.719360 0.853840 -0.642594
O16   O     O_R   0.164550 0.280640 0.146160 -0.646488
O17   O     O_R   0.664550 0.780640 0.353840 -0.639476
O18   O     O_R   0.664550 0.219360 0.646160 -0.675005
O19   O     O_R   0.664550 0.219360 0.353840 -0.638915
O20   O     O_R   0.664550 0.780640 0.646160 -0.644712
O21   O     O_R   0.396160 0.219380 0.914560 -0.623682
O22   O     O_R   0.396160 0.780620 0.085440 -0.643973
O23   O     O_R   0.396160 0.780620 0.914560 -0.635493
O24   O     O_R   0.396160 0.219380 0.085440 -0.640495
O25   O     O_R   0.896160 0.719380 0.414560 -0.635322
O26   O     O_R   0.896160 0.280620 0.585440 -0.635567
O27   O     O_R   0.896160 0.280620 0.414560 -0.638908
O28   O     O_R   0.896160 0.719380 0.585440 -0.638064
O29   O     O_R   0.103840 0.219370 0.085450 -0.636278
O30   O     O_R   0.103840 0.780630 0.914550 -0.637831
O31   O     O_R   0.103840 0.780630 0.085450 -0.629231
O32   O     O_R   0.103840 0.219370 0.914550 -0.647962
O33   O     O_R   0.603840 0.719370 0.585450 -0.636565
O34   O     O_R   0.603840 0.280630 0.414550 -0.643752
O35   O     O_R   0.603840 0.280630 0.585450 -0.625993
O36   O     O_R   0.603840 0.719370 0.414550 -0.646788
O37   O     O_R   0.310730 0.133160 0.000000 -0.628290
O38   O     O_R   0.310730 0.866840 0.000000 -0.660251
O39   O     O_R   0.810730 0.633160 0.500000 -0.644832
O40   O     O_R   0.810730 0.366840 0.500000 -0.666484
O41   O     O_R   0.249970 0.366860 0.060720 -0.651179
O42   O     O_R   0.249970 0.633140 0.939280 -0.648377
O43   O     O_R   0.249970 0.633140 0.060720 -0.651227
O44   O     O_R   0.249970 0.366860 0.939280 -0.642293
O45   O     O_R   0.749970 0.866860 0.560720 -0.647835
O46   O     O_R   0.749970 0.133140 0.439280 -0.644554
O47   O     O_R   0.749970 0.133140 0.560720 -0.651592
O48   O     O_R   0.749970 0.866860 0.439280 -0.653094
O49   O     O_R   0.189290 0.133150 0.000000 -0.674843
O50   O     O_R   0.189290 0.866850 0.000000 -0.638253
O51   O     O_R   0.689290 0.633150 0.500000 -0.659625
O52   O     O_R   0.689290 0.366850 0.500000 -0.632318
C1    C     C_R   0.388876 0.249520 0.140494 0.779385
C2    C     C_R   0.389904 0.749880 0.860262 0.789222
C3    C     C_R   0.389526 0.750682 0.140257 0.786162
C4    C     C_R   0.388759 0.250115 0.858671 0.792778
C5    C     C_R   0.889695 0.750190 0.639663 0.779408
C6    C     C_R   0.890002 0.249847 0.360206 0.781822
C7    C     C_R   0.889659 0.250165 0.640106 0.795202
C8    C     C_R   0.889399 0.750274 0.359846 0.783373
C9    C     C_R   0.111760 0.248378 0.858360 0.782795
C10   C     C_R   0.110580 0.749505 0.140423 0.785894
C11   C     C_R   0.109480 0.749147 0.860825 0.773760
C12   C     C_R   0.109708 0.250511 0.139350 0.789829
C13   C     C_R   0.609642 0.750129 0.360315 0.784861
C14   C     C_R   0.609796 0.247998 0.639948 0.805049
C15   C     C_R   0.611372 0.250984 0.358974 0.772938
C16   C     C_R   0.609776 0.750606 0.639644 0.784108
C17   C     C_R   0.248763 0.109029 0.000210 0.828302
C18   C     C_R   0.250721 0.890686 0.001439 0.821713
C19   C     C_R   0.748995 0.609238 0.502388 0.815223
C20   C     C_R   0.751372 0.390889 0.501486 0.814941
C21   C     C_R   0.249834 0.391402 0.999990 0.750582
C22   C     C_R   0.249880 0.608625 0.000229 0.746378
C23   C     C_R   0.749848 0.891372 0.499784 0.740414
C24   C     C_R   0.749929 0.108595 0.500024 0.749065
C25   C     C_3   0.249364 0.469979 0.080100 -0.378616
C26   C     C_3   0.181435 0.529525 0.960695 -0.397535
C27   C     C_3   0.249304 0.529490 0.080279 -0.381233
C28   C     C_3   0.181404 0.469590 0.960554 -0.395092
C29   C     C_3   0.681879 0.969149 0.540260 -0.392295
C30   C     C_3   0.748665 0.029996 0.419981 -0.377843
C31   C     C_3   0.681888 0.029080 0.540396 -0.399419
C32   C     C_3   0.748457 0.970490 0.419799 -0.381302
H1    H     H_    0.298067 0.456161 0.110166 0.179825
H2    H     H_    0.180269 0.544053 0.903238 0.185360
H3    H     H_    0.297915 0.544064 0.110467 0.174884
H4    H     H_    0.180184 0.455561 0.903046 0.185018
H5    H     H_    0.681316 0.954612 0.597732 0.184824
H6    H     H_    0.797121 0.044711 0.389335 0.180795
H7    H     H_    0.681252 0.043092 0.597920 0.182265
H8    H     H_    0.796701 0.956826 0.388925 0.182313
H9    H     H_    0.200422 0.455132 0.109829 0.179336
H10   H     H_    0.131399 0.543407 0.988252 0.163384
H11   H     H_    0.200274 0.543080 0.109943 0.180336
H12   H     H_    0.131406 0.454515 0.988154 0.160615
H13   H     H_    0.631552 0.954293 0.513365 0.163217
H14   H     H_    0.699487 0.043933 0.390837 0.180970
H15   H     H_    0.631622 0.043173 0.513444 0.154150
H16   H     H_    0.699063 0.955982 0.390831 0.179623
H17   H     H_    0.368225 0.456743 0.988892 0.156929
H18   H     H_    0.320512 0.545461 0.903948 0.186849
H19   H     H_    0.368291 0.545563 0.989506 0.164540
H20   H     H_    0.320163 0.456996 0.903495 0.184571
H21   H     H_    0.821624 0.955851 0.595158 0.188318
H22   H     H_    0.868438 0.045570 0.509755 0.154613
H23   H     H_    0.821153 0.044350 0.595713 0.187205
H24   H     H_    0.868377 0.956762 0.508922 0.148965
C33   C     C_3   0.318487 0.470918 0.961035 -0.396472
C34   C     C_3   0.318583 0.530831 0.961351 -0.389642
C35   C     C_3   0.819012 0.970492 0.537813 -0.394868
C36   C     C_3   0.818946 0.030412 0.538185 -0.386484
C37   C     C_3   0.249764 0.449158 0.000336 0.191675
C38   C     C_3   0.249791 0.550920 0.000667 0.193549
C39   C     C_3   0.749796 0.949074 0.499391 0.195533
C40   C     C_3   0.749854 0.050835 0.499729 0.189806
H25   H     H_    0.902495 0.336446 0.953504 0.134640
H26   H     H_    0.201816 0.839291 0.355909 0.140783
H27   H     H_    0.113487 0.915639 0.735600 0.146163
H28   H     H_    0.156023 0.111802 0.311358 0.152074
H29   H     H_    0.587980 0.577977 0.253471 0.137540
H30   H     H_    0.374398 0.245417 0.516886 0.153906
H31   H     H_    0.402452 0.155911 0.451276 0.131550
H32   H     H_    0.685474 0.641662 0.841744 0.143751
C41   C     C_R   0.134412 0.194952 0.713523 0.106858
C42   C     C_R   0.978831 0.681426 0.128004 0.109557
C43   C     C_R   0.002612 0.660482 0.847573 0.118487
C44   C     C_R   0.986841 0.324828 0.130465 0.114056
C45   C     C_R   0.517876 0.842773 0.337327 0.125701
C46   C     C_R   0.634280 0.210188 0.797819 0.148355
C47   C     C_R   0.630461 0.310803 0.217923 0.120230
C48   C     C_R   0.485094 0.823912 0.630799 0.106058
C49   C     C_R   0.142303 0.173403 0.644062 -0.088338
C50   C     C_R   0.909306 0.661655 0.113503 -0.104362
C51   C     C_R   0.958367 0.617401 0.832872 -0.114415
C52   C     C_R   0.922826 0.352796 0.123918 -0.141335
C53   C     C_R   0.487368 0.889145 0.313847 -0.111663
C54   C     C_R   0.655906 0.221288 0.869505 -0.159498
C55   C     C_R   0.639844 0.332844 0.148513 -0.100992
C56   C     C_R   0.419351 0.849585 0.621697 -0.106755
C57   C     C_R   0.445782 0.890828 0.251019 -0.205547
C58   C     C_R   0.610451 0.248054 0.916156 -0.200256
C59   C     C_R   0.587713 0.326488 0.094859 -0.231342
C60   C     C_R   0.362002 0.841011 0.669518 -0.195182
C61   C     C_R   0.088338 0.177666 0.592071 -0.193517
C62   C     C_R   0.851098 0.673813 0.158189 -0.207057
C63   C     C_R   0.912072 0.617029 0.773425 -0.204084
C64   C     C_R   0.867323 0.346591 0.174230 -0.175001
C65   C     C_R   0.430170 0.845473 0.213419 -0.165818
C66   C     C_R   0.540362 0.259456 0.893664 -0.120330
C67   C     C_R   0.524273 0.299125 0.110360 -0.150975
C68   C     C_R   0.370464 0.808265 0.729215 -0.140331
C69   C     C_R   0.024441 0.202616 0.608967 -0.147404
C70   C     C_R   0.862468 0.703216 0.220700 -0.153129
C71   C     C_R   0.907554 0.660456 0.728924 -0.144321
C72   C     C_R   0.876150 0.314322 0.234210 -0.129572
C73   C     C_R   0.463125 0.797941 0.232988 0.054807
C74   C     C_R   0.517153 0.248191 0.821542 0.056425
C75   C     C_R   0.512542 0.275698 0.179817 0.066383
C76   C     C_R   0.435821 0.780978 0.740209 0.054644
C77   C     C_R   0.013468 0.225187 0.678616 0.057739
C78   C     C_R   0.931824 0.724679 0.236594 0.053778
C79   C     C_R   0.952776 0.704659 0.740407 0.054121
C80   C     C_R   0.938886 0.284024 0.242461 0.041586
C81   C     C_R   0.069377 0.222739 0.732282 0.016105
C82   C     C_R   0.989470 0.717946 0.186127 0.027339
C83   C     C_R   0.004060 0.704364 0.798479 0.028229
C84   C     C_R   0.994459 0.287021 0.188459 0.030743
C85   C     C_R   0.512205 0.797120 0.292705 0.034158
C86   C     C_R   0.568579 0.232106 0.769832 0.028652
C87   C     C_R   0.567488 0.279150 0.234217 0.017879
C88   C     C_R   0.492634 0.785638 0.687823 0.024577
C89   C     C_R   0.446434 0.751280 0.195425 -0.139452
C90   C     C_R   0.443834 0.252357 0.800612 -0.157754
C91   C     C_R   0.445609 0.250731 0.196015 -0.128814
C92   C     C_R   0.445430 0.750137 0.803523 -0.127797
C93   C     C_R   0.946702 0.249062 0.695191 -0.131409
C94   C     C_R   0.944964 0.751083 0.303007 -0.130682
C95   C     C_R   0.945271 0.749510 0.696302 -0.130524
C96   C     C_R   0.945396 0.250009 0.303012 -0.126823
C97   C     C_R   0.483727 0.705056 0.210602 0.036705
C98   C     C_R   0.424165 0.252520 0.724914 0.051257
C99   C     C_R   0.432647 0.227353 0.264834 0.029628
C100  C     C_R   0.508773 0.720950 0.813966 0.032248
C101  C     C_R   0.933836 0.271358 0.764129 0.033636
C102  C     C_R   0.013004 0.774699 0.317530 0.048511
C103  C     C_R   0.990089 0.793664 0.706316 0.049398
C104  C     C_R   0.002410 0.214284 0.307143 0.038632
C105  C     C_R   0.989499 0.271366 0.816918 0.077274
C106  C     C_R   0.068455 0.772513 0.264328 0.081135
C107  C     C_R   0.044005 0.793033 0.761073 0.078135
C108  C     C_R   0.056364 0.214849 0.252360 0.073021
C109  C     C_R   0.536615 0.704720 0.266229 0.074397
C110  C     C_R   0.478793 0.245075 0.671785 0.081016
C111  C     C_R   0.489006 0.226174 0.316967 0.085987
C112  C     C_R   0.563200 0.721920 0.759629 0.073240
C113  C     C_R   0.056634 0.247269 0.801270 -0.137972
C114  C     C_R   0.055309 0.746304 0.197561 -0.139053
C115  C     C_R   0.051707 0.748361 0.806115 -0.137884
C116  C     C_R   0.053117 0.251656 0.194509 -0.134032
C117  C     C_R   0.551314 0.750738 0.306423 -0.148227
C118  C     C_R   0.551666 0.239555 0.694152 -0.193456
C119  C     C_R   0.555873 0.252066 0.301983 -0.135234
C120  C     C_R   0.553961 0.752766 0.695929 -0.132229
C121  C     C_R   0.471331 0.659405 0.169010 -0.161589
C122  C     C_R   0.352115 0.260650 0.699864 -0.196080
C123  C     C_R   0.364463 0.204389 0.282492 -0.163173
C124  C     C_R   0.518576 0.690219 0.877636 -0.158533
C125  C     C_R   0.866448 0.294542 0.781191 -0.186295
C126  C     C_R   0.026454 0.801371 0.383920 -0.181549
C127  C     C_R   0.983185 0.838313 0.661277 -0.197658
C128  C     C_R   0.005574 0.176837 0.364080 -0.165160
C129  C     C_R   0.507952 0.613635 0.184258 0.163719
C130  C     C_R   0.334247 0.259107 0.625284 0.148715
C131  C     C_R   0.352847 0.179291 0.349541 0.182306
C132  C     C_R   0.581641 0.661598 0.888058 0.160279
C133  C     C_R   0.854349 0.317296 0.849297 0.152952
C134  C     C_R   0.094218 0.824692 0.397988 0.173358
C135  C     C_R   0.027379 0.882245 0.671704 0.165446
C136  C     C_R   0.059851 0.139507 0.365517 0.153058
C137  C     C_R   0.910257 0.318344 0.900788 -0.170549
C138  C     C_R   0.149087 0.821653 0.345627 -0.160902
C139  C     C_R   0.079812 0.881654 0.726418 -0.152452
C140  C     C_R   0.113408 0.140328 0.311283 -0.175502
C141  C     C_R   0.559198 0.613127 0.240373 -0.187940
C142  C     C_R   0.387848 0.248032 0.574430 -0.155203
C143  C     C_R   0.409961 0.175867 0.399455 -0.201838
C144  C     C_R   0.635848 0.663113 0.834444 -0.163803
C145  C     C_R   0.976808 0.296076 0.884797 -0.170705
C146  C     C_R   0.136705 0.795898 0.279861 -0.211652
C147  C     C_R   0.089323 0.837590 0.769480 -0.193293
C148  C     C_R   0.112509 0.177918 0.256331 -0.182809
C149  C     C_R   0.574293 0.658058 0.279739 -0.183573
C150  C     C_R   0.458971 0.240725 0.597088 -0.177716
C151  C     C_R   0.476906 0.199094 0.383751 -0.188162
C152  C     C_R   0.626824 0.692613 0.771101 -0.182829
H33   H     H_    0.191454 0.152960 0.630186 0.148747
H34   H     H_    0.900914 0.634884 0.068705 0.147311
H35   H     H_    0.958028 0.584393 0.869791 0.141966
H36   H     H_    0.916306 0.380167 0.079310 0.135386
H37   H     H_    0.493170 0.923800 0.346697 0.140704
H38   H     H_    0.706320 0.206071 0.890664 0.153762
H39   H     H_    0.687567 0.356415 0.136592 0.136663
H40   H     H_    0.413428 0.877772 0.578017 0.148056
H41   H     H_    0.421964 0.927011 0.233768 0.159372
H42   H     H_    0.627463 0.256250 0.971637 0.159516
H43   H     H_    0.595475 0.344263 0.041545 0.141011
H44   H     H_    0.311516 0.861316 0.661751 0.140653
H45   H     H_    0.095792 0.160979 0.538455 0.172619
H46   H     H_    0.797565 0.658044 0.146515 0.146335
H47   H     H_    0.877346 0.583613 0.763378 0.146961
H48   H     H_    0.817458 0.367432 0.167106 0.162433
H49   H     H_    0.391925 0.848877 0.169056 0.163525
H50   H     H_    0.504651 0.277466 0.932853 0.126792
H51   H     H_    0.484155 0.297283 0.067239 0.127125
H52   H     H_    0.325019 0.804632 0.766622 0.128743
H53   H     H_    0.983556 0.203578 0.566508 0.135025
H54   H     H_    0.816263 0.708817 0.256321 0.143818
H55   H     H_    0.867323 0.658780 0.685931 0.144049
H56   H     H_    0.832437 0.312435 0.273343 0.140111
H57   H     H_    0.433958 0.658578 0.123395 0.143393
H58   H     H_    0.308796 0.269986 0.736085 0.167621
H59   H     H_    0.319283 0.205985 0.244786 0.130386
H60   H     H_    0.477531 0.688059 0.920107 0.126324
H61   H     H_    0.822354 0.295343 0.742066 0.134313
H62   H     H_    0.984527 0.804514 0.425196 0.115042
H63   H     H_    0.943698 0.839582 0.617536 0.122956
H64   H     H_    0.965135 0.175317 0.407175 0.121744
H65   H     H_    0.018191 0.298673 0.926337 0.138002
H66   H     H_    0.181652 0.793996 0.241844 0.143593
H67   H     H_    0.132432 0.839374 0.809567 0.143459
H68   H     H_    0.155889 0.177281 0.216561 0.130263
H69   H     H_    0.615791 0.655347 0.320818 0.151445
H70   H     H_    0.497755 0.230216 0.555427 0.145013
H71   H     H_    0.518817 0.195604 0.424871 0.125575
H72   H     H_    0.670878 0.692687 0.731873 0.132191
C153  C     C_R   0.272937 0.052800 0.144221 0.164609
C154  C     C_R   0.247140 0.944824 0.144537 0.125790
C155  C     C_R   0.710275 0.547888 0.632871 0.103934
C156  C     C_R   0.778042 0.450772 0.636843 0.111387
C157  C     C_R   0.286085 0.023071 0.207648 0.113492
C158  C     C_R   0.269126 0.970343 0.209141 0.054028
C159  C     C_R   0.724568 0.523699 0.700243 0.120247
C160  C     C_R   0.760629 0.476638 0.702551 0.065994
C161  C     C_R   0.252111 0.971799 0.075385 -0.015506
C162  C     C_R   0.257813 0.026999 0.075711 -0.020159
C163  C     C_R   0.758317 0.473639 0.567460 -0.004579
C164  C     C_R   0.736964 0.525687 0.566133 -0.035586
C165  C     C_R   0.252414 0.946189 0.005631 -0.072303
C166  C     C_R   0.243299 0.053172 0.007899 -0.086462
C167  C     C_R   0.757875 0.446744 0.499562 -0.073158
C168  C     C_R   0.745049 0.553599 0.498901 -0.070984
C169  C     C_R   0.247937 0.974120 0.938985 -0.015876
C170  C     C_R   0.224783 0.025069 0.944065 -0.052241
C171  C     C_R   0.759776 0.473313 0.430506 -0.051777
C172  C     C_R   0.754860 0.528339 0.430111 -0.009375
C173  C     C_R   0.261407 0.953748 0.867158 0.033644
C174  C     C_R   0.185931 0.046171 0.883795 0.055436
C175  C     C_R   0.769040 0.447308 0.361454 0.063963
C176  C     C_R   0.757970 0.555288 0.360246 0.042307
C177  C     C_R   0.239616 0.982046 0.805041 0.073097
C178  C     C_R   0.196727 0.025941 0.813813 0.133467
C179  C     C_R   0.760583 0.473969 0.295590 0.153532
C180  C     C_R   0.756753 0.527506 0.294703 0.066849
N1    N     N_3   0.785261 0.339909 0.864743 -0.489025
H73   H     H_    0.785057 0.355798 0.917298 0.175869
H74   H     H_    0.746351 0.310075 0.864798 0.191496
N2    N     N_3   0.108006 0.851906 0.465013 -0.475228
H75   H     H_    0.147172 0.831242 0.494020 0.187928
H76   H     H_    0.061331 0.851984 0.497723 0.169115
N3    N     N_3   0.019381 0.927948 0.627461 -0.462939
H77   H     H_    0.067018 0.932759 0.596775 0.180964
H78   H     H_    0.977047 0.922897 0.589938 0.166043
N4    N     N_3   0.059588 0.101026 0.422515 -0.490283
H79   H     H_    0.104358 0.076806 0.417058 0.177836
H80   H     H_    0.013218 0.077722 0.415488 0.180466
N5    N     N_3   0.493274 0.568349 0.141108 -0.468897
H81   H     H_    0.526122 0.537786 0.158021 0.180580
H82   H     H_    0.439548 0.556756 0.151405 0.174815
N6    N     N_3   0.261516 0.268133 0.600355 -0.460472
H83   H     H_    0.262885 0.301551 0.567747 0.190078
H84   H     H_    0.227374 0.276168 0.644525 0.189586
N7    N     N_3   0.282649 0.157344 0.365839 -0.483294
H85   H     H_    0.283399 0.138162 0.416395 0.175891
H86   H     H_    0.246675 0.188102 0.371295 0.193631
N8    N     N_3   0.589349 0.630929 0.953298 -0.459784
H87   H     H_    0.638514 0.611087 0.952328 0.176594
H88   H     H_    0.592099 0.656365 0.997626 0.188551
N9    N     N_3   0.162056 0.049665 0.752171 -0.431485
H89   H     H_    0.202323 0.061660 0.715132 0.194434
H90   H     H_    0.129413 0.021682 0.726548 0.202109
N10   N     N_3   0.257349 0.964856 0.732714 -0.483758
H91   H     H_    0.313951 0.964861 0.727735 0.208201
H92   H     H_    0.238715 0.926696 0.726735 0.182966
N11   N     N_3   0.757387 0.553954 0.225340 -0.485165
H93   H     H_    0.713474 0.579126 0.223208 0.194160
H94   H     H_    0.805368 0.575949 0.221707 0.209440
N12   N     N_3   0.761841 0.445927 0.228098 -0.447065
H95   H     H_    0.805450 0.459825 0.196535 0.191955
H96   H     H_    0.713705 0.453332 0.199787 0.187385
C181  C     C_3   0.272403 0.111127 0.154342 -0.860202
H97   H     H_    0.271383 0.122833 0.212489 0.240754
H98   H     H_    0.321938 0.129172 0.130438 0.260849
H99   H     H_    0.221825 0.127667 0.132309 0.218402
C182  C     C_3   0.211554 0.891755 0.152572 -0.871547
H100  H     H_    0.194523 0.882844 0.209151 0.217509
H101  H     H_    0.159671 0.890676 0.121931 0.270063
H102  H     H_    0.249035 0.860654 0.135860 0.214579
C183  C     C_3   0.656190 0.591541 0.633805 -0.776435
H103  H     H_    0.620751 0.590391 0.682993 0.241485
H104  H     H_    0.685092 0.629529 0.633762 0.221420
H105  H     H_    0.617592 0.587413 0.587544 0.256919
C184  C     C_3   0.825071 0.403041 0.642256 -0.834689
H106  H     H_    0.853060 0.398733 0.695401 0.220025
H107  H     H_    0.791586 0.367334 0.635210 0.224756
H108  H     H_    0.870190 0.406017 0.602083 0.266413
N13   N     N_3   0.312976 0.047471 0.273023 -0.442499
H109  H     H_    0.274306 0.042699 0.314599 0.197471
H110  H     H_    0.360669 0.029003 0.289033 0.198646
N14   N     N_3   0.272549 0.943896 0.278546 -0.490188
H111  H     H_    0.298212 0.908333 0.272286 0.198204
H112  H     H_    0.219731 0.937621 0.298059 0.194494
N15   N     N_3   0.703201 0.547973 0.767401 -0.470491
H113  H     H_    0.668210 0.522688 0.795794 0.206064
H114  H     H_    0.749514 0.554361 0.799374 0.183630
N16   N     N_3   0.775095 0.454460 0.773212 -0.482320
H115  H     H_    0.831158 0.454156 0.782233 0.193408
H116  H     H_    0.753633 0.416768 0.774913 0.223601
N17   N     N_3   0.302855 0.907981 0.854458 -0.472232
H117  H     H_    0.350684 0.909431 0.885163 0.226284
H118  H     H_    0.271495 0.874906 0.865936 0.171505
N18   N     N_3   0.120983 0.075290 0.895156 -0.419915
H119  H     H_    0.100300 0.068569 0.947759 0.217937
H120  H     H_    0.131961 0.114536 0.887962 0.218254
N19   N     N_3   0.797510 0.396168 0.354330 -0.440819
H121  H     H_    0.848044 0.394121 0.380061 0.222926
H122  H     H_    0.760798 0.367909 0.372340 0.178716
N20   N     N_3   0.764464 0.610425 0.351348 -0.494607
H123  H     H_    0.719413 0.629499 0.371663 0.184722
H124  H     H_    0.814115 0.624030 0.371501 0.221515
N21   N     N_3   0.193772 0.186143 0.762213 -0.477950
H125  H     H_    0.219540 0.221019 0.774351 0.192223
H126  H     H_    0.175342 0.167716 0.809407 0.176685
N22   N     N_3   0.037593 0.657037 0.090595 -0.473719
H127  H     H_    0.064044 0.683331 0.056162 0.179259
H128  H     H_    0.073899 0.642363 0.129204 0.202790
N23   N     N_3   0.036947 0.660183 0.917579 -0.486066
H129  H     H_    0.092515 0.653960 0.912135 0.203728
H130  H     H_    0.025329 0.694839 0.944059 0.186922
N24   N     N_3   0.042472 0.338318 0.078633 -0.495239
H131  H     H_    0.088572 0.351941 0.106080 0.209037
H132  H     H_    0.053527 0.307046 0.044783 0.177701
N25   N     N_3   0.542126 0.841928 0.411644 -0.484318
H133  H     H_    0.523530 0.807843 0.436854 0.183782
H134  H     H_    0.598450 0.846244 0.414203 0.206127
N26   N     N_3   0.667086 0.165455 0.765846 -0.449707
H135  H     H_    0.634208 0.149036 0.725231 0.209583
H136  H     H_    0.718867 0.175226 0.746141 0.232150
N27   N     N_3   0.683164 0.325784 0.271122 -0.479665
H137  H     H_    0.656526 0.342605 0.315380 0.193855
H138  H     H_    0.713245 0.293695 0.286697 0.185670
N28   N     N_3   0.544053 0.842561 0.586298 -0.478687
H139  H     H_    0.585994 0.856061 0.619956 0.208607
H140  H     H_    0.561782 0.813533 0.551584 0.179398

loop_
_geom_bond_atom_site_label_1
_geom_bond_atom_site_label_2
_geom_bond_distance
_ccdc_geom_bond_type
C174  C178  1.398188 A    
C156  C163  1.444138 A    
C57   H41   1.082359 S    
C44   C84   1.444670 A    
C153  C157  1.409250 A    
C181  H97   1.105914 S    
C151  H71   1.081586 S    
C53   H37   1.083481 S    
C1    C91   1.456585 S    
C103  C127  1.419405 A    
C2    C92   1.454467 S    
C12   C116  1.448858 S    
C79   C95   1.415086 A    
N5    H81   1.045807 S    
C101  C125  1.419164 A    
C58   C66   1.389067 A    
O26   C7    1.272035 A    
C166  C170  1.415707 A    
C77   C93   1.415056 A    
C70   C78   1.415362 A    
C173  N17   1.434192 S    
N23   H130  1.043337 S    
C54   C58   1.386625 A    
C42   N22   1.432954 S    
C105  C145  1.417629 A    
N21   H126  1.036794 S    
O30   C11   1.282072 A    
C50   H34   1.083356 S    
C23   C39   1.488732 S    
C93   C101  1.408187 A    
C4    C90   1.466434 S    
C133  C137  1.394955 A    
Zn12  O26   1.937692 S    
C104  C108  1.408689 A    
C174  N18   1.435811 S    
N2    H75   1.045516 S    
C96   C104  1.407860 A    
C47   C55   1.396489 A    
C80   C96   1.414682 A    
C177  N10   1.434357 S    
C184  H108  1.109045 S    
H29   C141  1.082345 S    
C106  C114  1.416962 A    
C43   C51   1.396224 A    
H26   C138  1.083159 S    
C10   C114  1.457701 S    
O11   C7    1.271788 A    
O34   C15   1.282651 A    
C76   C88   1.419920 A    
C83   C115  1.432340 A    
C182  H102  1.109023 S    
C66   C74   1.415737 A    
N4    H79   1.045814 S    
C145  H65   1.077413 S    
C141  C149  1.392214 A    
C29   C39   1.551462 S    
C102  C126  1.417748 A    
Zn1   O44   1.946871 S    
C25   H1    1.113548 S    
C52   H36   1.083404 S    
C169  C173  1.438334 A    
N8    H87   1.045812 S    
C155  C159  1.403828 A    
C112  C120  1.418109 A    
C161  C162  1.426671 A    
Zn5   O48   1.946871 S    
H32   C144  1.082361 S    
Zn6   O47   1.946862 S    
C126  H62   1.082255 S    
Zn7   O46   1.942213 S    
O16   C12   1.272087 A    
C78   C94   1.413798 A    
C163  C164  1.404416 A    
C46   C54   1.398948 A    
C161  C165  1.438295 A    
Zn16  O4    1.968050 S    
C149  H69   1.074017 S    
Zn12  O4    1.943171 S    
Zn1   O13   1.938635 S    
C137  C145  1.391176 A    
C26   C28   1.546366 S    
Zn4   O16   1.934514 S    
N4    H80   1.045588 S    
H24   C35   1.113001 S    
C147  H67   1.080952 S    
C42   C82   1.434905 A    
C181  H99   1.104758 S    
C28   H4    1.112955 S    
N24   H132  1.041115 S    
C124  C132  1.396799 A    
Zn6   O4    1.941198 S    
N3    H78   1.045556 S    
C170  C174  1.423446 A    
C89   C97   1.410563 A    
C180  N11   1.436007 S    
N6    H83   1.045487 S    
C107  C147  1.420088 A    
C154  C158  1.411218 A    
C48   C88   1.439815 A    
C162  C166  1.434911 A    
C30   H6    1.113584 S    
Zn10  O22   1.937692 S    
C109  C117  1.422103 A    
C183  H103  1.109621 S    
O25   C8    1.282462 A    
Zn13  O29   1.938493 S    
C64   H48   1.077604 S    
C103  C107  1.409941 A    
Zn10  O2    1.943171 S    
C175  N19   1.432766 S    
N10   H91   1.045492 S    
C59   C67   1.384294 A    
O29   C12   1.277665 A    
C41   C81   1.445235 A    
Zn15  O33   1.938493 S    
C35   C39   1.551580 S    
C71   H55   1.080596 S    
N20   H123  1.038973 S    
H19   C34   1.113288 S    
C33   C37   1.550579 S    
C95   C103  1.410065 A    
C26   H2    1.113019 S    
N1    H73   1.045779 S    
C45   C85   1.438476 A    
O37   C17   1.291764 A    
O48   C23   1.276125 A    
N25   H133  1.043948 S    
C80   C84   1.421094 A    
C28   C37   1.550839 S    
N17   H118  1.043877 S    
C171  C175  1.442666 A    
C131  C143  1.395696 A    
N11   H93   1.044296 S    
Zn16  O35   1.930502 S    
C21   C37   1.490215 S    
C86   C118  1.429994 A    
C73   C85   1.417343 A    
C26   C38   1.551663 S    
Zn7   O10   1.934474 S    
O33   C16   1.283472 A    
N26   H135  1.045599 S    
C24   C40   1.490261 S    
C179  N12   1.432914 S    
C97   C121  1.420797 A    
C53   C57   1.381029 A    
C134  C138  1.393202 A    
O40   C20   1.263959 A    
C123  H59   1.081425 S    
C49   H33   1.083695 S    
C124  H60   1.082789 S    
C15   C119  1.459725 S    
C154  C161  1.441337 A    
C16   C120  1.454192 S    
N19   H122  1.039157 S    
Zn6   O11   1.938594 S    
C61   H45   1.081135 S    
N18   H119  1.045855 S    
C58   H42   1.082099 S    
Zn5   O17   1.938635 S    
C27   C38   1.553160 S    
N27   H138  1.040839 S    
H31   C143  1.083055 S    
C54   H38   1.083303 S    
C61   C69   1.383529 A    
C92   C100  1.409045 A    
C13   C117  1.457555 S    
C25   C27   1.535449 S    
C135  N3    1.435510 S    
C71   C79   1.419217 A    
H25   C137  1.082504 S    
C69   C77   1.417221 A    
C27   H3    1.113516 S    
C104  C128  1.417784 A    
N28   H140  1.039413 S    
Zn14  O50   1.939107 S    
C32   H8    1.113500 S    
Zn8   O3    1.950471 S    
C143  C151  1.391542 A    
C55   C59   1.381113 A    
C56   C60   1.383904 A    
C183  H105  1.109184 S    
C57   C65   1.386722 A    
O38   C18   1.271775 A    
C19   C168  1.438114 S    
O5    C1    1.282715 A    
O32   C9    1.274266 A    
C108  C148  1.416741 A    
C130  C142  1.387686 A    
C55   H39   1.082659 S    
Zn15  O51   1.951793 S    
Zn11  O28   1.935220 S    
Zn12  O40   1.951748 S    
C43   N23   1.427086 S    
C8    C94   1.456202 S    
Zn2   O43   1.946862 S    
C64   C72   1.383793 A    
N9    H90   1.045678 S    
O8    C4    1.269751 A    
C67   C75   1.417613 A    
Zn9   O1    1.968355 S    
C68   C76   1.415945 A    
C136  C140  1.396451 A    
N22   H127  1.038601 S    
C127  H63   1.081378 S    
O50   C18   1.279929 A    
C173  C177  1.407877 A    
C30   H14   1.113516 S    
C111  C119  1.417857 A    
Zn1   O1    1.941199 S    
C150  H70   1.080765 S    
Zn13  O1    1.942866 S    
Zn2   O14   1.943935 S    
C45   N25   1.429657 S    
C29   H5    1.113009 S    
C44   C52   1.394820 A    
N21   H125  1.036498 S    
C165  C169  1.414618 A    
O9    C5    1.284946 A    
O39   C19   1.286092 A    
O36   C13   1.269709 A    
C98   C110  1.412120 A    
C146  H66   1.081141 S    
C75   C87   1.420833 A    
C164  C168  1.427106 A    
O13   C9    1.272984 A    
C122  C130  1.402448 A    
Zn1   O8    1.943888 S    
N2    H76   1.045748 S    
N12   H95   1.045907 S    
C30   C40   1.555380 S    
Zn2   O7    1.938594 S    
C60   H44   1.081963 S    
C101  C105  1.407691 A    
Zn3   O6    1.934474 S    
C81   C113  1.433503 A    
O18   C14   1.262511 A    
O31   C10   1.289767 A    
H17   C33   1.113082 S    
O6    C2    1.272346 A    
C168  C172  1.430797 A    
C25   H9    1.113597 S    
C17   C166  1.449383 S    
C184  H107  1.109464 S    
N16   H115  1.045131 S    
C183  H104  1.108717 S    
C32   H16   1.113682 S    
C9    C113  1.455912 S    
N15   H113  1.045698 S    
Zn14  O30   1.935474 S    
C60   C68   1.386331 A    
Zn15  O3    1.942866 S    
C182  H101  1.107454 S    
Zn11  O3    1.968355 S    
C99   C123  1.416435 A    
O41   C21   1.274556 A    
C31   C40   1.551003 S    
C106  C146  1.415627 A    
Zn16  O34   1.935474 S    
H21   C35   1.113049 S    
N13   H110  1.045728 S    
C31   H15   1.113026 S    
N8    H88   1.045687 S    
C84   C116  1.426951 A    
C34   C38   1.551280 S    
C94   C102  1.411056 A    
C139  C147  1.392335 A    
Zn8   O20   1.934514 S    
N16   H116  1.044930 S    
C125  H61   1.082318 S    
C112  C152  1.417673 A    
C63   C71   1.384428 A    
C48   N28   1.431483 S    
C72   C80   1.410903 A    
C88   C120  1.428380 A    
C105  C113  1.420037 A    
C181  H98   1.106243 S    
Zn8   O9    1.944179 S    
C25   C37   1.555472 S    
C72   H56   1.075919 S    
C123  C131  1.397339 A    
N5    H82   1.045599 S    
C50   C62   1.386251 A    
C142  C150  1.388261 A    
O7    C3    1.277901 A    
C69   H53   1.081671 S    
N6    H84   1.045316 S    
O19   C15   1.286311 A    
Zn13  O49   1.951793 S    
C47   C87   1.438537 A    
O44   C21   1.279777 A    
C62   H46   1.082588 S    
Zn9   O24   1.935220 S    
Zn6   O18   1.943935 S    
Zn10  O23   1.938243 S    
C152  H72   1.081289 S    
C43   C83   1.440693 A    
C159  C160  1.392152 A    
C129  C141  1.393853 A    
N7    H85   1.045718 S    
C62   C70   1.388566 A    
C160  N16   1.435909 S    
C138  C146  1.393275 A    
C107  C115  1.421482 A    
C46   N26   1.436147 S    
Zn15  O36   1.937946 S    
C3    C89   1.454259 S    
O15   C11   1.286842 A    
O42   C22   1.277666 A    
N20   H124  1.042600 S    
C74   C90   1.408240 A    
Zn4   O1    1.950471 S    
C30   C32   1.535273 S    
C5    C95   1.455912 S    
C33   C34   1.545823 S    
C49   C61   1.380077 A    
C35   C36   1.546035 S    
O12   C8    1.278020 A    
Zn11  O39   1.939067 S    
C90   C98   1.429767 A    
N17   H117  1.044645 S    
C136  N4    1.434968 S    
C63   H47   1.082693 S    
C132  C144  1.397098 A    
C135  C139  1.390252 A    
C46   C86   1.435403 A    
C67   H51   1.081030 S    
C126  C134  1.401814 A    
C134  N2    1.435578 S    
N11   H94   1.044948 S    
Zn5   O3    1.941199 S    
C31   H7    1.113031 S    
C175  C179  1.392806 A    
C176  C180  1.398541 A    
C125  C133  1.397201 A    
C42   C50   1.397072 A    
C154  C182  1.516055 S    
N26   H136  1.045387 S    
N3    H77   1.045579 S    
C153  C181  1.517293 S    
H20   C33   1.112980 S    
C26   H10   1.113218 S    
C167  C171  1.432751 A    
H22   C36   1.113211 S    
O28   C5    1.279564 A    
C76   C92   1.413168 A    
C179  C180  1.384065 A    
C22   C38   1.488785 S    
Zn3   O42   1.942213 S    
C156  C160  1.414777 A    
N18   H120  1.037512 S    
Zn7   O4    1.950472 S    
O21   C4    1.297969 A    
C121  C129  1.394703 A    
C140  C148  1.392504 A    
N24   H131  1.043728 S    
C48   C56   1.396956 A    
C157  N13   1.437983 S    
C109  C149  1.418218 A    
C171  C172  1.423803 A    
C41   N21   1.429402 S    
Zn2   O2    1.941198 S    
C157  C158  1.391733 A    
Zn14  O2    1.968050 S    
C121  H57   1.081184 S    
N23   H129  1.042018 S    
C32   C39   1.553049 S    
C41   C49   1.396018 A    
N19   H121  1.044369 S    
C87   C119  1.432755 A    
C169  C170  1.390882 A    
C133  N1    1.434402 S    
C28   H12   1.113164 S    
C100  C112  1.409102 A    
C85   C117  1.426110 A    
C98   C122  1.421145 A    
C91   C99   1.410183 A    
C184  H106  1.105335 S    
Zn12  O27   1.938243 S    
C68   H52   1.082083 S    
C75   C91   1.412531 A    
C77   C81   1.423812 A    
N15   H114  1.045497 S    
C65   C73   1.419858 A    
C178  N9    1.433568 S    
Zn3   O2    1.950472 S    
C18   C165  1.434359 S    
C156  C184  1.517740 S    
H27   C139  1.080722 S    
N1    H74   1.044118 S    
O46   C24   1.274804 A    
O47   C24   1.279572 A    
Zn16  O52   1.939107 S    
C122  H58   1.066220 S    
H30   C142  1.082399 S    
Zn8   O45   1.942223 S    
C45   C53   1.394418 A    
C128  H64   1.082786 S    
O27   C6    1.278570 A    
C11   C115  1.460065 S    
C47   N27   1.424886 S    
C108  C116  1.419041 A    
C176  N20   1.434385 S    
C36   C40   1.550676 S    
N10   H92   1.044415 S    
C29   C31   1.546262 S    
C66   H50   1.082015 S    
C79   C83   1.420779 A    
C6    C96   1.458708 S    
O24   C1    1.282348 A    
C100  C124  1.417376 A    
N22   H128  1.045219 S    
C148  H68   1.079049 S    
C163  C167  1.424213 A    
C130  N6    1.435980 S    
C172  C176  1.450903 A    
N14   H112  1.045136 S    
O43   C22   1.275931 A    
Zn4   O41   1.942223 S    
Zn3   O15   1.944224 S    
Zn5   O12   1.943888 S    
N27   H137  1.044315 S    
C14   C118  1.470025 S    
C155  C183  1.513343 S    
Zn9   O21   1.930251 S    
C65   H49   1.078026 S    
C78   C82   1.417605 A    
O35   C14   1.306213 A    
C52   C64   1.380307 A    
C129  N5    1.435473 S    
C51   C63   1.381028 A    
C7    C93   1.455481 S    
C59   H43   1.082824 S    
N7    H86   1.045445 S    
N12   H96   1.045664 S    
O52   C20   1.292900 A    
N25   H134  1.042118 S    
C29   H13   1.113276 S    
C70   H54   1.081764 S    
C159  N15   1.437002 S    
N14   H111  1.044401 S    
C51   H35   1.083586 S    
N28   H139  1.044518 S    
O22   C3    1.266297 A    
C44   N24   1.431841 S    
C144  C152  1.393099 A    
Zn7   O19   1.944224 S    
Zn13  O32   1.937946 S    
O49   C17   1.266420 A    
Zn14  O31   1.930502 S    
C127  C135  1.399973 A    
C182  H100  1.101815 S    
O51   C19   1.268116 A    
C110  C118  1.411276 A    
H28   C140  1.082807 S    
C153  C162  1.445984 A    
C132  N8    1.435392 S    
C27   H11   1.113557 S    
N13   H109  1.045801 S    
C74   C86   1.404449 A    
Zn4   O5    1.944179 S    
C158  N14   1.438553 S    
H23   C36   1.112988 S    
O20   C16   1.269105 A    
C73   C89   1.418874 A    
O10   C6    1.273138 A    
O23   C2    1.277383 A    
C110  C150  1.417400 A    
Zn11  O25   1.930251 S    
C99   C111  1.409446 A    
C177  C178  1.398998 A    
Zn10  O38   1.951748 S    
C128  C136  1.397184 A    
C97   C109  1.408007 A    
O14   C10   1.273937 A    
Zn9   O37   1.939067 S    
C20   C167  1.444682 S    
C102  C106  1.410168 A    
C131  N7    1.433718 S    
C82   C114  1.423007 A    
H18   C34   1.112983 S    
C111  C151  1.418583 A    
N9    H89   1.045491 S    
O17   C13   1.277405 A    
O45   C23   1.277453 A    
C155  C164  1.438297 A    
C56   H40   1.083470 S    
