data_mof_unit_4305.cif
_audit_creation_date              2012-12-10T17:22:36-0500
_audit_creation_method            fapswitch 2.2
_symmetry_space_group_name_H-M    P1
_symmetry_Int_Tables_number       1
_space_group_crystal_system       triclinic
_cell_length_a                    25.98655
_cell_length_b                    35.97488
_cell_length_c                    26.046212
_cell_angle_alpha                 90.848916
_cell_angle_beta                  90.0
_cell_angle_gamma                 89.999982
_cell_volume                      24346.9677246

loop_
_atom_site_label
_atom_site_type_symbol
_atom_type_description
_atom_site_fract_x
_atom_site_fract_y
_atom_site_fract_z
_atom_type_partial_charge
C1    C     C_R   0.499842 0.150559 0.249842 0.833496
C2    C     C_R   0.500192 0.150561 0.749846 0.820465
C3    C     C_R   0.499842 0.849441 0.750158 0.833547
C4    C     C_R   0.500192 0.849439 0.250154 0.820564
C5    C     C_R   0.499842 0.650559 0.749842 0.833541
C6    C     C_R   0.500192 0.650561 0.249846 0.820565
C7    C     C_R   0.499842 0.349441 0.250158 0.833520
C8    C     C_R   0.500192 0.349439 0.750154 0.820465
C9    C     C_R   0.999842 0.150559 0.749843 0.833620
C10   C     C_R   0.000192 0.150561 0.249846 0.820595
C11   C     C_R   0.999842 0.849441 0.250158 0.833539
C12   C     C_R   0.000192 0.849439 0.750154 0.820552
C13   C     C_R   0.999842 0.650559 0.249842 0.833530
C14   C     C_R   0.000192 0.650561 0.749846 0.820552
C15   C     C_R   0.999842 0.349441 0.750157 0.833619
C16   C     C_R   0.000192 0.349439 0.250154 0.820596
C17   C     C_R   0.277586 0.243663 0.203838 0.066399
C18   C     C_R   0.277215 0.228576 0.712728 0.069371
C19   C     C_R   0.277587 0.756328 0.796165 0.066418
C20   C     C_R   0.277210 0.770986 0.287748 0.069363
C21   C     C_R   0.277587 0.743670 0.703836 0.066414
C22   C     C_R   0.277211 0.729019 0.212242 0.069389
C23   C     C_R   0.277587 0.256337 0.296163 0.066399
C24   C     C_R   0.277215 0.271423 0.787277 0.069370
C25   C     C_R   0.777587 0.243673 0.703835 0.066421
C26   C     C_R   0.777209 0.229144 0.212116 0.069405
C27   C     C_R   0.777587 0.756330 0.296164 0.066414
C28   C     C_R   0.777209 0.771026 0.787692 0.069406
C29   C     C_R   0.777587 0.743671 0.203835 0.066416
C30   C     C_R   0.777210 0.728971 0.712315 0.069410
C31   C     C_R   0.777587 0.256326 0.796165 0.066421
C32   C     C_R   0.777208 0.270853 0.287886 0.069374
C33   C     C_R   0.197179 0.250000 0.250001 -0.198702
C34   C     C_R   0.195725 0.250000 0.750001 -0.169272
C35   C     C_R   0.197180 0.749999 0.750001 -0.198711
C36   C     C_R   0.195725 0.750000 0.250002 -0.169351
C37   C     C_R   0.697180 0.250000 0.750000 -0.198712
C38   C     C_R   0.695725 0.250002 0.249998 -0.169381
C39   C     C_R   0.697180 0.750000 0.250000 -0.198709
C40   C     C_R   0.695724 0.750000 0.750001 -0.169363
C41   C     C_R   0.304577 0.250000 0.250000 -0.159108
C42   C     C_R   0.303785 0.250000 0.750001 -0.131483
C43   C     C_R   0.304577 0.750000 0.750000 -0.159103
C44   C     C_R   0.303783 0.750001 0.249998 -0.131666
C45   C     C_R   0.804577 0.250000 0.750000 -0.159098
C46   C     C_R   0.803783 0.250000 0.250000 -0.131721
C47   C     C_R   0.804577 0.750000 0.250000 -0.159102
C48   C     C_R   0.803784 0.750000 0.750002 -0.131634
C49   C     C_3   0.445871 0.478687 0.247816 -0.409421
C50   C     C_3   0.446158 0.478360 0.752304 -0.406260
C51   C     C_3   0.445871 0.521313 0.752167 -0.409421
C52   C     C_3   0.446158 0.521640 0.247672 -0.406244
C53   C     C_3   0.445870 0.978687 0.747869 -0.409433
C54   C     C_3   0.446157 0.978360 0.252301 -0.406229
C55   C     C_3   0.445870 0.021313 0.252166 -0.409427
C56   C     C_3   0.446157 0.021641 0.747747 -0.406237
C57   C     C_3   0.945873 0.478687 0.747827 -0.409424
C58   C     C_3   0.946159 0.478359 0.252286 -0.406211
C59   C     C_3   0.945872 0.521313 0.252154 -0.409430
C60   C     C_3   0.946161 0.521640 0.747687 -0.406236
C61   C     C_3   0.945873 0.978687 0.247833 -0.409429
C62   C     C_3   0.946160 0.978360 0.752307 -0.406241
C63   C     C_3   0.945873 0.021313 0.752167 -0.409425
C64   C     C_3   0.946160 0.021640 0.247696 -0.406222
C65   C     C_3   0.528871 0.476728 0.194743 -0.057576
C66   C     C_3   0.529011 0.478422 0.805636 -0.057131
C67   C     C_3   0.528854 0.523272 0.805266 -0.057569
C68   C     C_3   0.529035 0.521578 0.194376 -0.057154
C69   C     C_3   0.528816 0.976728 0.694712 -0.057566
C70   C     C_3   0.529007 0.978422 0.305639 -0.057152
C71   C     C_3   0.528851 0.023272 0.305269 -0.057578
C72   C     C_3   0.528959 0.021577 0.694335 -0.057132
C73   C     C_3   0.028864 0.476728 0.694740 -0.057564
C74   C     C_3   0.028995 0.478422 0.305644 -0.057154
C75   C     C_3   0.028843 0.523272 0.305272 -0.057569
C76   C     C_3   0.029024 0.521578 0.694372 -0.057144
C77   C     C_3   0.028856 0.976728 0.194735 -0.057571
C78   C     C_3   0.029018 0.978422 0.805631 -0.057147
C79   C     C_3   0.028858 0.023272 0.805263 -0.057565
C80   C     C_3   0.029013 0.021578 0.194366 -0.057155
C81   C     C_1   0.000416 0.110948 0.248934 -0.114596
C82   C     C_1   0.999469 0.110951 0.750131 -0.120797
C83   C     C_1   0.000416 0.889052 0.751066 -0.114608
C84   C     C_1   0.999469 0.889049 0.249868 -0.120758
C85   C     C_1   0.000416 0.610948 0.748934 -0.114607
C86   C     C_1   0.999469 0.610951 0.250131 -0.120755
C87   C     C_1   0.000416 0.389052 0.251067 -0.114595
C88   C     C_1   0.999469 0.389049 0.749869 -0.120798
C89   C     C_1   0.500414 0.110948 0.748932 -0.114625
C90   C     C_1   0.499468 0.110951 0.250132 -0.120744
C91   C     C_1   0.500415 0.889052 0.251067 -0.114604
C92   C     C_1   0.499469 0.889049 0.749868 -0.120761
C93   C     C_1   0.500415 0.610948 0.248933 -0.114604
C94   C     C_1   0.499469 0.610951 0.750132 -0.120761
C95   C     C_1   0.500415 0.389052 0.751067 -0.114623
C96   C     C_1   0.499468 0.389049 0.249868 -0.120745
C97   C     C_3   0.501661 0.463227 0.245494 0.231131
C98   C     C_3   0.502142 0.463332 0.754998 0.231671
C99   C     C_3   0.501659 0.536773 0.754506 0.231139
C100  C     C_3   0.502144 0.536667 0.245003 0.231658
C101  C     C_3   0.501657 0.963227 0.745492 0.231138
C102  C     C_3   0.502142 0.963332 0.254999 0.231657
C103  C     C_3   0.501659 0.036773 0.254507 0.231135
C104  C     C_3   0.502139 0.036668 0.745000 0.231675
C105  C     C_3   0.001661 0.463227 0.745496 0.231153
C106  C     C_3   0.002142 0.463332 0.254997 0.231649
C107  C     C_3   0.001660 0.536773 0.254506 0.231133
C108  C     C_3   0.002145 0.536667 0.745004 0.231658
C109  C     C_3   0.001661 0.963227 0.245494 0.231135
C110  C     C_3   0.002144 0.963332 0.754996 0.231664
C111  C     C_3   0.001661 0.036773 0.754504 0.231155
C112  C     C_3   0.002144 0.036668 0.245003 0.231650
C113  C     C_3   0.031246 0.021992 0.292712 -0.415128
C114  C     C_3   0.030829 0.020950 0.706915 -0.410176
C115  C     C_3   0.031243 0.978008 0.707284 -0.415122
C116  C     C_3   0.030830 0.979050 0.293083 -0.410150
C117  C     C_3   0.031238 0.521992 0.792718 -0.415123
C118  C     C_3   0.030840 0.520950 0.206924 -0.410148
C119  C     C_3   0.031261 0.478008 0.207299 -0.415136
C120  C     C_3   0.030824 0.479050 0.793088 -0.410174
C121  C     C_3   0.531289 0.021992 0.792680 -0.415140
C122  C     C_3   0.530830 0.020949 0.206920 -0.410147
C123  C     C_3   0.531248 0.978008 0.207292 -0.415129
C124  C     C_3   0.530860 0.979050 0.793060 -0.410145
C125  C     C_3   0.531227 0.521992 0.292725 -0.415118
C126  C     C_3   0.530830 0.520949 0.706918 -0.410156
C127  C     C_3   0.531246 0.478008 0.707290 -0.415120
C128  C     C_3   0.530816 0.479050 0.293092 -0.410149
C129  C     C_1   0.000982 0.077586 0.247493 -0.087031
C130  C     C_1   0.000043 0.077616 0.751560 -0.088599
C131  C     C_1   0.000983 0.922414 0.752506 -0.087041
C132  C     C_1   0.000043 0.922384 0.248439 -0.088586
C133  C     C_1   0.000983 0.577586 0.747494 -0.087042
C134  C     C_1   0.000043 0.577616 0.251561 -0.088585
C135  C     C_1   0.000982 0.422414 0.252507 -0.087030
C136  C     C_1   0.000043 0.422383 0.748440 -0.088599
C137  C     C_1   0.500979 0.077586 0.747490 -0.087055
C138  C     C_1   0.500041 0.077616 0.251563 -0.088581
C139  C     C_1   0.500980 0.922414 0.252509 -0.087036
C140  C     C_1   0.500041 0.922384 0.748437 -0.088587
C141  C     C_1   0.500982 0.577586 0.247493 -0.087036
C142  C     C_1   0.500042 0.577616 0.751562 -0.088589
C143  C     C_1   0.500981 0.422414 0.752508 -0.087056
C144  C     C_1   0.500042 0.422384 0.248438 -0.088582
C145  C     C_R   0.422798 0.206107 0.045896 -0.195473
C146  C     C_R   0.462657 0.185742 0.950774 -0.184973
C147  C     C_R   0.422781 0.793879 0.954102 -0.195526
C148  C     C_R   0.462636 0.814251 0.049223 -0.184978
C149  C     C_R   0.422786 0.706117 0.545898 -0.195526
C150  C     C_R   0.462642 0.685747 0.450776 -0.184977
C151  C     C_R   0.422800 0.293894 0.454104 -0.195471
C152  C     C_R   0.462659 0.314259 0.549226 -0.184973
C153  C     C_R   0.922779 0.206123 0.545898 -0.195545
C154  C     C_R   0.962634 0.185751 0.450777 -0.184972
C155  C     C_R   0.922786 0.793883 0.454102 -0.195519
C156  C     C_R   0.962642 0.814253 0.549224 -0.184982
C157  C     C_R   0.922785 0.706119 0.045898 -0.195519
C158  C     C_R   0.962640 0.685748 0.950776 -0.184981
C159  C     C_R   0.922779 0.293877 0.954101 -0.195543
C160  C     C_R   0.962634 0.314249 0.049222 -0.184972
C161  C     C_R   0.496226 0.247781 0.390074 0.816985
C162  C     C_R   0.503209 0.251738 0.609672 0.805742
C163  C     C_R   0.496225 0.752220 0.609926 0.816984
C164  C     C_R   0.503207 0.748263 0.390328 0.805639
C165  C     C_R   0.496225 0.747780 0.890074 0.816979
C166  C     C_R   0.503207 0.751737 0.109672 0.805636
C167  C     C_R   0.496226 0.252219 0.109926 0.817003
C168  C     C_R   0.503209 0.248262 0.890328 0.805737
C169  C     C_R   0.996224 0.247779 0.890073 0.816945
C170  C     C_R   0.003206 0.251737 0.109671 0.805610
C171  C     C_R   0.996225 0.752220 0.109926 0.816989
C172  C     C_R   0.003208 0.748263 0.890328 0.805649
C173  C     C_R   0.996225 0.747780 0.390074 0.816983
C174  C     C_R   0.003207 0.751737 0.609672 0.805652
C175  C     C_R   0.996224 0.252221 0.609926 0.816942
C176  C     C_R   0.003207 0.248263 0.390329 0.805606
C177  C     C_R   0.403744 0.174513 0.020532 -0.007498
C178  C     C_R   0.425706 0.163215 0.973747 0.003449
C179  C     C_R   0.403717 0.825469 0.979467 -0.007495
C180  C     C_R   0.425676 0.836771 0.026250 0.003427
C181  C     C_R   0.403724 0.674526 0.520533 -0.007496
C182  C     C_R   0.425685 0.663225 0.473749 0.003429
C183  C     C_R   0.403745 0.325488 0.479468 -0.007500
C184  C     C_R   0.425708 0.336786 0.526253 0.003450
C185  C     C_R   0.903713 0.174533 0.520534 -0.007495
C186  C     C_R   0.925673 0.163231 0.473750 0.003418
C187  C     C_R   0.903724 0.825474 0.479467 -0.007496
C188  C     C_R   0.925685 0.836775 0.526251 0.003433
C189  C     C_R   0.903722 0.674528 0.020533 -0.007496
C190  C     C_R   0.925682 0.663226 0.973749 0.003431
C191  C     C_R   0.903713 0.325467 0.979466 -0.007495
C192  C     C_R   0.925673 0.336769 0.026250 0.003418
C193  C     C_R   0.478197 0.219832 0.973849 0.057481
C194  C     C_R   0.463840 0.227033 0.025138 0.066838
C195  C     C_R   0.478184 0.780162 0.026150 0.057448
C196  C     C_R   0.463828 0.772959 0.974861 0.066802
C197  C     C_R   0.478187 0.719836 0.473850 0.057448
C198  C     C_R   0.463831 0.727039 0.525139 0.066804
C199  C     C_R   0.478197 0.280169 0.526151 0.057479
C200  C     C_R   0.463840 0.272968 0.474862 0.066837
C201  C     C_R   0.978182 0.219839 0.473851 0.057443
C202  C     C_R   0.963826 0.227043 0.525139 0.066788
C203  C     C_R   0.978188 0.780164 0.526150 0.057451
C204  C     C_R   0.963831 0.772961 0.474861 0.066807
C205  C     C_R   0.978186 0.719836 0.973850 0.057452
C206  C     C_R   0.963830 0.727039 0.025139 0.066807
C207  C     C_R   0.978182 0.280160 0.026149 0.057444
C208  C     C_R   0.963826 0.272957 0.974860 0.066788
C209  C     C_R   0.507830 0.246483 0.947196 -0.185837
C210  C     C_R   0.489946 0.255298 0.053456 -0.193523
C211  C     C_R   0.507824 0.753514 0.052803 -0.185829
C212  C     C_R   0.489941 0.744698 0.946542 -0.193533
C213  C     C_R   0.507825 0.746486 0.447197 -0.185827
C214  C     C_R   0.489942 0.755301 0.553457 -0.193530
C215  C     C_R   0.507830 0.253517 0.552804 -0.185836
C216  C     C_R   0.489946 0.244702 0.446544 -0.193520
C217  C     C_R   0.007821 0.246488 0.447197 -0.185811
C218  C     C_R   0.989939 0.255304 0.553458 -0.193523
C219  C     C_R   0.007825 0.753515 0.552803 -0.185830
C220  C     C_R   0.989942 0.744699 0.446543 -0.193531
C221  C     C_R   0.007825 0.746485 0.947196 -0.185832
C222  C     C_R   0.989942 0.755302 0.053457 -0.193533
C223  C     C_R   0.007821 0.253512 0.052803 -0.185812
C224  C     C_R   0.989939 0.244696 0.946542 -0.193523
C225  C     C_R   0.532643 0.275747 0.975420 0.066717
C226  C     C_R   0.518478 0.282412 0.026974 0.058866
C227  C     C_R   0.532639 0.724251 0.024579 0.066711
C228  C     C_R   0.518475 0.717585 0.973024 0.058847
C229  C     C_R   0.532638 0.775750 0.475421 0.066712
C230  C     C_R   0.518473 0.782415 0.526975 0.058846
C231  C     C_R   0.532642 0.224252 0.524580 0.066714
C232  C     C_R   0.518476 0.217588 0.473026 0.058864
C233  C     C_R   0.032634 0.275752 0.475421 0.066717
C234  C     C_R   0.018470 0.282417 0.526976 0.058850
C235  C     C_R   0.032639 0.724251 0.524579 0.066711
C236  C     C_R   0.018474 0.717585 0.473025 0.058848
C237  C     C_R   0.032640 0.775748 0.975421 0.066712
C238  C     C_R   0.018475 0.782414 0.026975 0.058849
C239  C     C_R   0.032634 0.224247 0.024579 0.066716
C240  C     C_R   0.018470 0.217583 0.973024 0.058851
C241  C     C_R   0.571934 0.298447 0.954561 -0.191847
C242  C     C_R   0.532430 0.316608 0.050653 -0.182924
C243  C     C_R   0.571931 0.701551 0.045439 -0.191825
C244  C     C_R   0.532429 0.683390 0.949345 -0.182947
C245  C     C_R   0.571927 0.798452 0.454561 -0.191825
C246  C     C_R   0.532423 0.816611 0.550654 -0.182944
C247  C     C_R   0.571932 0.201551 0.545439 -0.191848
C248  C     C_R   0.532427 0.183392 0.449347 -0.182920
C249  C     C_R   0.071923 0.298455 0.454561 -0.191792
C250  C     C_R   0.032422 0.316613 0.550655 -0.182952
C251  C     C_R   0.071929 0.701550 0.545439 -0.191830
C252  C     C_R   0.032426 0.683390 0.449346 -0.182942
C253  C     C_R   0.071931 0.798449 0.954561 -0.191829
C254  C     C_R   0.032429 0.816610 0.050654 -0.182942
C255  C     C_R   0.071922 0.201545 0.045439 -0.191794
C256  C     C_R   0.032421 0.183387 0.949345 -0.182953
C257  C     C_R   0.588586 0.330825 0.979920 -0.007987
C258  C     C_R   0.566918 0.340788 0.027347 0.001462
C259  C     C_R   0.588583 0.669173 0.020081 -0.007987
C260  C     C_R   0.566916 0.659210 0.972653 0.001469
C261  C     C_R   0.588576 0.830831 0.479919 -0.007991
C262  C     C_R   0.566907 0.840793 0.527346 0.001472
C263  C     C_R   0.588583 0.169173 0.520080 -0.007992
C264  C     C_R   0.566914 0.159211 0.472653 0.001462
C265  C     C_R   0.088571 0.330835 0.479918 -0.007994
C266  C     C_R   0.066905 0.340795 0.527347 0.001470
C267  C     C_R   0.088579 0.669170 0.520081 -0.007989
C268  C     C_R   0.066911 0.659208 0.472654 0.001469
C269  C     C_R   0.088583 0.830827 0.979919 -0.007988
C270  C     C_R   0.066916 0.840790 0.027346 0.001469
C271  C     C_R   0.088569 0.169165 0.020082 -0.007992
C272  C     C_R   0.066904 0.159204 0.972654 0.001470
C273  C     C_R   0.639871 0.250000 0.250000 0.843768
C274  C     C_R   0.640560 0.250000 0.750000 0.817128
C275  C     C_R   0.639871 0.750000 0.750000 0.843798
C276  C     C_R   0.640560 0.750000 0.250000 0.817136
C277  C     C_R   0.139872 0.250000 0.750000 0.843866
C278  C     C_R   0.140560 0.250000 0.250000 0.817147
C279  C     C_R   0.139872 0.750000 0.250001 0.843793
C280  C     C_R   0.140560 0.750000 0.750000 0.817132
C281  C     C_R   0.360136 0.250000 0.250000 0.794131
C282  C     C_R   0.360114 0.250000 0.750001 0.782757
C283  C     C_R   0.360136 0.750000 0.750000 0.794116
C284  C     C_R   0.360113 0.750001 0.250001 0.782674
C285  C     C_R   0.860136 0.250000 0.750000 0.794103
C286  C     C_R   0.860113 0.250001 0.250001 0.782635
C287  C     C_R   0.860136 0.750000 0.250000 0.794119
C288  C     C_R   0.860114 0.750000 0.750000 0.782657
C289  C     C_R   0.301274 0.244550 0.154929 -0.135200
C290  C     C_R   0.304968 0.207557 0.675571 -0.142971
C291  C     C_R   0.301277 0.755432 0.845072 -0.135216
C292  C     C_R   0.304950 0.791535 0.325414 -0.143095
C293  C     C_R   0.301276 0.744565 0.654929 -0.135212
C294  C     C_R   0.304952 0.708477 0.174567 -0.143088
C295  C     C_R   0.301275 0.255449 0.345071 -0.135197
C296  C     C_R   0.304966 0.292438 0.824439 -0.142980
C297  C     C_R   0.801277 0.244571 0.654928 -0.135217
C298  C     C_R   0.804946 0.208731 0.174315 -0.143142
C299  C     C_R   0.801276 0.755435 0.345072 -0.135209
C300  C     C_R   0.804951 0.791616 0.825299 -0.143124
C301  C     C_R   0.801277 0.744566 0.154928 -0.135211
C302  C     C_R   0.804952 0.708376 0.674715 -0.143124
C303  C     C_R   0.801277 0.255427 0.845073 -0.135218
C304  C     C_R   0.804945 0.291255 0.325704 -0.143137
C305  C     C_R   0.275968 0.230178 0.111976 -0.156222
C306  C     C_R   0.279924 0.185779 0.639118 -0.159988
C307  C     C_R   0.275971 0.769793 0.888032 -0.156300
C308  C     C_R   0.279898 0.812947 0.362275 -0.160100
C309  C     C_R   0.275969 0.730201 0.611970 -0.156299
C310  C     C_R   0.279899 0.687059 0.137713 -0.160152
C311  C     C_R   0.275969 0.269820 0.388025 -0.156223
C312  C     C_R   0.279921 0.314215 0.860893 -0.159981
C313  C     C_R   0.775970 0.230212 0.611967 -0.156323
C314  C     C_R   0.779890 0.187423 0.137347 -0.160170
C315  C     C_R   0.775970 0.769798 0.388030 -0.156287
C316  C     C_R   0.779898 0.813063 0.862110 -0.160097
C317  C     C_R   0.775970 0.730204 0.111969 -0.156288
C318  C     C_R   0.779899 0.686928 0.637906 -0.160093
C319  C     C_R   0.775971 0.269786 0.888034 -0.156321
C320  C     C_R   0.779890 0.312554 0.362686 -0.160160
C321  C     C_R   0.229378 0.211863 0.118202 -0.177852
C322  C     C_R   0.226808 0.183876 0.638877 -0.160129
C323  C     C_R   0.229379 0.788106 0.881815 -0.177858
C324  C     C_R   0.226792 0.815005 0.362379 -0.160212
C325  C     C_R   0.229378 0.711887 0.618190 -0.177862
C326  C     C_R   0.226793 0.684999 0.137619 -0.160188
C327  C     C_R   0.229379 0.288134 0.381800 -0.177853
C328  C     C_R   0.226805 0.316120 0.861133 -0.160137
C329  C     C_R   0.729378 0.211898 0.618183 -0.177863
C330  C     C_R   0.726787 0.185328 0.137275 -0.160219
C331  C     C_R   0.729378 0.788112 0.381811 -0.177859
C332  C     C_R   0.726793 0.815108 0.862232 -0.160225
C333  C     C_R   0.729379 0.711890 0.118188 -0.177859
C334  C     C_R   0.726794 0.684886 0.637780 -0.160220
C335  C     C_R   0.729378 0.288099 0.881818 -0.177863
C336  C     C_R   0.726787 0.314661 0.362743 -0.160202
C337  C     C_R   0.205272 0.211723 0.166320 0.018533
C338  C     C_R   0.197616 0.203989 0.674848 0.020220
C339  C     C_R   0.205272 0.788257 0.833697 0.018515
C340  C     C_R   0.197616 0.795370 0.325895 0.020358
C341  C     C_R   0.205272 0.711738 0.666307 0.018524
C342  C     C_R   0.197619 0.704633 0.174105 0.020358
C343  C     C_R   0.205272 0.288275 0.333682 0.018532
C344  C     C_R   0.197614 0.296008 0.825159 0.020226
C345  C     C_R   0.705272 0.211745 0.666301 0.018518
C346  C     C_R   0.697617 0.204826 0.173895 0.020381
C347  C     C_R   0.705272 0.788261 0.333693 0.018522
C348  C     C_R   0.697617 0.795429 0.825806 0.020333
C349  C     C_R   0.705272 0.711740 0.166305 0.018517
C350  C     C_R   0.697617 0.704569 0.674200 0.020327
C351  C     C_R   0.705272 0.288253 0.833701 0.018512
C352  C     C_R   0.697617 0.295179 0.326101 0.020382
C353  C     C_R   0.225370 0.234362 0.207245 0.021170
C354  C     C_R   0.222553 0.227621 0.712660 0.025963
C355  C     C_R   0.225370 0.765628 0.792762 0.021167
C356  C     C_R   0.222552 0.772020 0.287747 0.026008
C357  C     C_R   0.225370 0.734369 0.707241 0.021166
C358  C     C_R   0.222552 0.727982 0.212253 0.025985
C359  C     C_R   0.225370 0.265637 0.292756 0.021170
C360  C     C_R   0.222552 0.272377 0.787344 0.025967
C361  C     C_R   0.725370 0.234373 0.707238 0.021164
C362  C     C_R   0.722552 0.228090 0.212138 0.026019
C363  C     C_R   0.725370 0.765631 0.292760 0.021168
C364  C     C_R   0.722551 0.772053 0.787697 0.026023
C365  C     C_R   0.725370 0.734370 0.207239 0.021168
C366  C     C_R   0.722552 0.727945 0.712308 0.026022
C367  C     C_R   0.725370 0.265626 0.792763 0.021166
C368  C     C_R   0.722552 0.271913 0.287859 0.026018
H1    H     H_    0.403326 0.214971 0.080632 0.169641
H2    H     H_    0.479866 0.175947 0.915233 0.162298
H3    H     H_    0.403313 0.785012 0.919364 0.169635
H4    H     H_    0.479844 0.824050 0.084763 0.162334
H5    H     H_    0.403316 0.714983 0.580635 0.169640
H6    H     H_    0.479851 0.675949 0.415236 0.162330
H7    H     H_    0.403326 0.285030 0.419368 0.169644
H8    H     H_    0.479868 0.324053 0.584767 0.162298
H9    H     H_    0.903311 0.214990 0.580636 0.169637
H10   H     H_    0.979842 0.175951 0.415239 0.162345
H11   H     H_    0.903316 0.785017 0.419365 0.169639
H12   H     H_    0.979851 0.824051 0.584764 0.162327
H13   H     H_    0.903315 0.714985 0.080635 0.169637
H14   H     H_    0.979848 0.675950 0.915237 0.162328
H15   H     H_    0.903311 0.285010 0.919364 0.169638
H16   H     H_    0.979842 0.324049 0.084761 0.162343
H17   H     H_    0.592179 0.290642 0.919873 0.176335
H18   H     H_    0.515523 0.325238 0.086912 0.158477
H19   H     H_    0.592177 0.709357 0.080126 0.176343
H20   H     H_    0.515524 0.674760 0.913086 0.158475
H21   H     H_    0.592174 0.790646 0.419874 0.176345
H22   H     H_    0.515517 0.825240 0.586914 0.158471
H23   H     H_    0.592178 0.209356 0.580127 0.176337
H24   H     H_    0.515520 0.174762 0.413088 0.158480
H25   H     H_    0.092170 0.290650 0.419873 0.176357
H26   H     H_    0.015518 0.325241 0.586916 0.158469
H27   H     H_    0.092175 0.709355 0.580126 0.176343
H28   H     H_    0.015520 0.674760 0.413086 0.158475
H29   H     H_    0.092177 0.790643 0.919873 0.176341
H30   H     H_    0.015523 0.825240 0.086913 0.158475
H31   H     H_    0.092169 0.209349 0.080126 0.176357
H32   H     H_    0.015517 0.174759 0.913084 0.158467
H33   H     H_    0.571018 0.468477 0.294071 0.183304
H34   H     H_    0.571652 0.467816 0.706713 0.182839
H35   H     H_    0.571030 0.531526 0.705948 0.183291
H36   H     H_    0.571631 0.532187 0.293322 0.182840
H37   H     H_    0.571057 0.968468 0.794010 0.183289
H38   H     H_    0.571655 0.967818 0.206719 0.182845
H39   H     H_    0.571030 0.031526 0.205949 0.183300
H40   H     H_    0.571698 0.032176 0.793211 0.182848
H41   H     H_    0.071025 0.468475 0.794064 0.183265
H42   H     H_    0.071668 0.467819 0.206737 0.182845
H43   H     H_    0.071040 0.531528 0.205960 0.183291
H44   H     H_    0.071643 0.532184 0.793304 0.182829
H45   H     H_    0.071030 0.968474 0.294055 0.183293
H46   H     H_    0.071648 0.967815 0.706702 0.182830
H47   H     H_    0.071030 0.031525 0.705944 0.183266
H48   H     H_    0.071652 0.032183 0.293289 0.182843
O1    O     O_3   0.500010 0.250000 0.250000 -0.483983
O2    O     O_3   0.500010 0.250000 0.750000 -0.483907
O3    O     O_3   0.500010 0.750000 0.750000 -0.483982
O4    O     O_3   0.500010 0.750000 0.250000 -0.483873
O5    O     O_3   0.000010 0.250000 0.750000 -0.483968
O6    O     O_3   0.000010 0.250000 0.250000 -0.483864
O7    O     O_3   0.000010 0.750000 0.250000 -0.483982
O8    O     O_3   0.000010 0.750000 0.750000 -0.483877
O9    O     O_R   0.469630 0.168010 0.219620 -0.630764
O10   O     O_R   0.469630 0.168010 0.780380 -0.641965
O11   O     O_R   0.469630 0.831990 0.780380 -0.630759
O12   O     O_R   0.469630 0.831990 0.219620 -0.641903
O13   O     O_R   0.469630 0.668010 0.719620 -0.630760
O14   O     O_R   0.469630 0.668010 0.280380 -0.641902
O15   O     O_R   0.469630 0.331990 0.280380 -0.630765
O16   O     O_R   0.469630 0.331990 0.719620 -0.641966
O17   O     O_R   0.969630 0.168010 0.719620 -0.630751
O18   O     O_R   0.969630 0.168010 0.280380 -0.641885
O19   O     O_R   0.969630 0.831990 0.280380 -0.630760
O20   O     O_R   0.969630 0.831990 0.719620 -0.641910
O21   O     O_R   0.969630 0.668010 0.219620 -0.630760
O22   O     O_R   0.969630 0.668010 0.780380 -0.641910
O23   O     O_R   0.969630 0.331990 0.780380 -0.630750
O24   O     O_R   0.969630 0.331990 0.219620 -0.641884
O25   O     O_R   0.530360 0.228500 0.365800 -0.634406
O26   O     O_R   0.530360 0.228500 0.634200 -0.654188
O27   O     O_R   0.530360 0.771500 0.634200 -0.634404
O28   O     O_R   0.530360 0.771500 0.365800 -0.654165
O29   O     O_R   0.530360 0.728500 0.865800 -0.634408
O30   O     O_R   0.530360 0.728500 0.134200 -0.654163
O31   O     O_R   0.530360 0.271500 0.134200 -0.634397
O32   O     O_R   0.530360 0.271500 0.865800 -0.654186
O33   O     O_R   0.030360 0.228500 0.865800 -0.634413
O34   O     O_R   0.030360 0.228500 0.134200 -0.654162
O35   O     O_R   0.030360 0.771500 0.134200 -0.634404
O36   O     O_R   0.030360 0.771500 0.865800 -0.654165
O37   O     O_R   0.030360 0.728500 0.365800 -0.634406
O38   O     O_R   0.030360 0.728500 0.634200 -0.654167
O39   O     O_R   0.030360 0.271500 0.634200 -0.634415
O40   O     O_R   0.030360 0.271500 0.365800 -0.654160
O41   O     O_R   0.615810 0.228490 0.280360 -0.622642
O42   O     O_R   0.615810 0.228490 0.719640 -0.650642
O43   O     O_R   0.615810 0.771510 0.719640 -0.622624
O44   O     O_R   0.615810 0.771510 0.280360 -0.650641
O45   O     O_R   0.615810 0.728490 0.780360 -0.622625
O46   O     O_R   0.615810 0.728490 0.219640 -0.650642
O47   O     O_R   0.615810 0.271510 0.219640 -0.622626
O48   O     O_R   0.615810 0.271510 0.780360 -0.650643
O49   O     O_R   0.115810 0.228490 0.780360 -0.622599
O50   O     O_R   0.115810 0.228490 0.219640 -0.650640
O51   O     O_R   0.115810 0.771510 0.219640 -0.622620
O52   O     O_R   0.115810 0.771510 0.780360 -0.650642
O53   O     O_R   0.115810 0.728490 0.280360 -0.622630
O54   O     O_R   0.115810 0.728490 0.719640 -0.650642
O55   O     O_R   0.115810 0.271510 0.719640 -0.622600
O56   O     O_R   0.115810 0.271510 0.280360 -0.650639
O57   O     O_R   0.384200 0.228500 0.219630 -0.650389
O58   O     O_R   0.384200 0.228500 0.780370 -0.631077
O59   O     O_R   0.384200 0.771500 0.780370 -0.650387
O60   O     O_R   0.384200 0.771500 0.219630 -0.631183
O61   O     O_R   0.384200 0.728500 0.719630 -0.650389
O62   O     O_R   0.384200 0.728500 0.280370 -0.631174
O63   O     O_R   0.384200 0.271500 0.280370 -0.650390
O64   O     O_R   0.384200 0.271500 0.719630 -0.631072
O65   O     O_R   0.884200 0.228500 0.719630 -0.650392
O66   O     O_R   0.884200 0.228500 0.280370 -0.631217
O67   O     O_R   0.884200 0.771500 0.280370 -0.650389
O68   O     O_R   0.884200 0.771500 0.719630 -0.631161
O69   O     O_R   0.884200 0.728500 0.219630 -0.650387
O70   O     O_R   0.884200 0.728500 0.780370 -0.631169
O71   O     O_R   0.884200 0.271500 0.780370 -0.650390
O72   O     O_R   0.884200 0.271500 0.219630 -0.631202
O73   O     O_R   0.469650 0.271490 0.365810 -0.650364
O74   O     O_R   0.469650 0.271490 0.634190 -0.640316
O75   O     O_R   0.469650 0.728510 0.634190 -0.650355
O76   O     O_R   0.469650 0.728510 0.365810 -0.640440
O77   O     O_R   0.469650 0.771490 0.865810 -0.650351
O78   O     O_R   0.469650 0.771490 0.134190 -0.640442
O79   O     O_R   0.469650 0.228510 0.134190 -0.650364
O80   O     O_R   0.469650 0.228510 0.865810 -0.640318
O81   O     O_R   0.969650 0.271490 0.865810 -0.650350
O82   O     O_R   0.969650 0.271490 0.134190 -0.640475
O83   O     O_R   0.969650 0.728510 0.134190 -0.650354
O84   O     O_R   0.969650 0.728510 0.865810 -0.640426
O85   O     O_R   0.969650 0.771490 0.365810 -0.650353
O86   O     O_R   0.969650 0.771490 0.634190 -0.640425
O87   O     O_R   0.969650 0.228510 0.634190 -0.650351
O88   O     O_R   0.969650 0.228510 0.365810 -0.640479
O89   O     O_R   0.530350 0.168010 0.280340 -0.636412
O90   O     O_R   0.530350 0.168010 0.719660 -0.624525
O91   O     O_R   0.530350 0.831990 0.719660 -0.636399
O92   O     O_R   0.530350 0.831990 0.280340 -0.624533
O93   O     O_R   0.530350 0.668010 0.780340 -0.636400
O94   O     O_R   0.530350 0.668010 0.219660 -0.624533
O95   O     O_R   0.530350 0.331990 0.219660 -0.636402
O96   O     O_R   0.530350 0.331990 0.780340 -0.624523
O97   O     O_R   0.030350 0.168010 0.780340 -0.636381
O98   O     O_R   0.030350 0.168010 0.219660 -0.624537
O99   O     O_R   0.030350 0.831990 0.219660 -0.636400
O100  O     O_R   0.030350 0.831990 0.780340 -0.624531
O101  O     O_R   0.030350 0.668010 0.280340 -0.636404
O102  O     O_R   0.030350 0.668010 0.719660 -0.624531
O103  O     O_R   0.030350 0.331990 0.719660 -0.636382
O104  O     O_R   0.030350 0.331990 0.280340 -0.624537
Zn1   Zn    Zn3+2 0.456640 0.280700 0.293380 0.970101
Zn2   Zn    Zn3+2 0.456640 0.280700 0.706620 0.972131
Zn3   Zn    Zn3+2 0.456640 0.719300 0.706620 0.970100
Zn4   Zn    Zn3+2 0.456640 0.719300 0.293380 0.972063
Zn5   Zn    Zn3+2 0.456640 0.780700 0.793380 0.970103
Zn6   Zn    Zn3+2 0.456640 0.780700 0.206620 0.972057
Zn7   Zn    Zn3+2 0.456640 0.219300 0.206620 0.970100
Zn8   Zn    Zn3+2 0.456640 0.219300 0.793380 0.972128
Zn9   Zn    Zn3+2 0.956640 0.280700 0.793380 0.970112
Zn10  Zn    Zn3+2 0.956640 0.280700 0.206620 0.972047
Zn11  Zn    Zn3+2 0.956640 0.719300 0.206620 0.970103
Zn12  Zn    Zn3+2 0.956640 0.719300 0.793380 0.972066
Zn13  Zn    Zn3+2 0.956640 0.780700 0.293380 0.970103
Zn14  Zn    Zn3+2 0.956640 0.780700 0.706620 0.972070
Zn15  Zn    Zn3+2 0.956640 0.219300 0.706620 0.970110
Zn16  Zn    Zn3+2 0.956640 0.219300 0.293380 0.972038
Zn17  Zn    Zn3+2 0.543380 0.219280 0.293370 1.005920
Zn18  Zn    Zn3+2 0.543380 0.219280 0.706630 0.969155
Zn19  Zn    Zn3+2 0.543380 0.780720 0.706630 1.005941
Zn20  Zn    Zn3+2 0.543380 0.780720 0.293370 0.969178
Zn21  Zn    Zn3+2 0.543380 0.719280 0.793370 1.005938
Zn22  Zn    Zn3+2 0.543380 0.719280 0.206630 0.969179
Zn23  Zn    Zn3+2 0.543380 0.280720 0.206630 1.005936
Zn24  Zn    Zn3+2 0.543380 0.280720 0.793370 0.969155
Zn25  Zn    Zn3+2 0.043380 0.219280 0.793370 1.005979
Zn26  Zn    Zn3+2 0.043380 0.219280 0.206630 0.969190
Zn27  Zn    Zn3+2 0.043380 0.780720 0.206630 1.005940
Zn28  Zn    Zn3+2 0.043380 0.780720 0.793370 0.969175
Zn29  Zn    Zn3+2 0.043380 0.719280 0.293370 1.005934
Zn30  Zn    Zn3+2 0.043380 0.719280 0.706630 0.969174
Zn31  Zn    Zn3+2 0.043380 0.280720 0.706630 1.005978
Zn32  Zn    Zn3+2 0.043380 0.280720 0.293370 0.969190
H49   H     H_    0.294592 0.269688 0.425206 0.145066
H50   H     H_    0.301944 0.330029 0.888936 0.146350
H51   H     H_    0.294592 0.730339 0.574789 0.145019
H52   H     H_    0.301912 0.671609 0.109282 0.146294
H53   H     H_    0.294594 0.769654 0.925213 0.145017
H54   H     H_    0.301912 0.828401 0.390705 0.146288
H55   H     H_    0.294591 0.230309 0.074794 0.145066
H56   H     H_    0.301947 0.169962 0.611079 0.146358
H57   H     H_    0.794594 0.269645 0.925215 0.145004
H58   H     H_    0.801901 0.327893 0.391236 0.146275
H59   H     H_    0.794593 0.730342 0.074788 0.145023
H60   H     H_    0.801917 0.671434 0.609523 0.146308
H61   H     H_    0.794592 0.769661 0.425211 0.145024
H62   H     H_    0.801915 0.828552 0.890498 0.146306
H63   H     H_    0.794593 0.230353 0.574786 0.145003
H64   H     H_    0.801902 0.172069 0.108816 0.146282
H65   H     H_    0.426405 0.469042 0.283303 0.191274
H66   H     H_    0.427009 0.467700 0.716782 0.193206
H67   H     H_    0.426414 0.530961 0.716677 0.191270
H68   H     H_    0.426991 0.532303 0.283183 0.193204
H69   H     H_    0.426433 0.969033 0.783366 0.191267
H70   H     H_    0.427011 0.967701 0.216778 0.193207
H71   H     H_    0.426413 0.030961 0.216677 0.191272
H72   H     H_    0.427046 0.032294 0.783293 0.193214
H73   H     H_    0.926411 0.469040 0.783314 0.191271
H74   H     H_    0.927023 0.467702 0.216756 0.193209
H75   H     H_    0.926421 0.530963 0.216663 0.191272
H76   H     H_    0.927003 0.532301 0.783204 0.193204
H77   H     H_    0.926414 0.969039 0.283322 0.191272
H78   H     H_    0.927007 0.967699 0.716789 0.193204
H79   H     H_    0.926415 0.030959 0.716677 0.191271
H80   H     H_    0.927010 0.032300 0.283217 0.193206
C369  C     C_1   0.580726 0.375032 0.053578 0.194647
N1    N     N_1   0.591796 0.402448 0.074596 -0.162521
C370  C     C_1   0.627321 0.353756 0.956270 0.160340
N2    N     N_1   0.658305 0.372227 0.937472 -0.169634
C371  C     C_1   0.580724 0.624965 0.946424 0.194643
N3    N     N_1   0.591793 0.597548 0.925408 -0.162519
C372  C     C_1   0.627316 0.646242 0.043732 0.160338
N4    N     N_1   0.658298 0.627770 0.062532 -0.169647
C373  C     C_1   0.580708 0.875041 0.553573 0.194635
N5    N     N_1   0.591772 0.902459 0.574588 -0.162522
C374  C     C_1   0.627306 0.853763 0.456267 0.160344
N6    N     N_1   0.658287 0.872237 0.437467 -0.169639
C375  C     C_1   0.580720 0.124965 0.446423 0.194640
N7    N     N_1   0.591788 0.097548 0.425407 -0.162523
C376  C     C_1   0.627316 0.146242 0.543730 0.160340
N8    N     N_1   0.658299 0.127769 0.562529 -0.169625
C377  C     C_1   0.080711 0.375041 0.553576 0.194640
N9    N     N_1   0.091778 0.402458 0.574592 -0.162522
C378  C     C_1   0.127298 0.353769 0.456263 0.160340
N10   N     N_1   0.158275 0.372243 0.437460 -0.169654
C379  C     C_1   0.080715 0.624962 0.446425 0.194642
N11   N     N_1   0.091781 0.597544 0.425410 -0.162521
C380  C     C_1   0.127309 0.646238 0.543733 0.160342
N12   N     N_1   0.158290 0.627765 0.562534 -0.169644
C381  C     C_1   0.080723 0.875035 0.053576 0.194643
N13   N     N_1   0.091792 0.902452 0.074592 -0.162520
C382  C     C_1   0.127316 0.853757 0.956268 0.160340
N14   N     N_1   0.158299 0.872229 0.937469 -0.169641
C383  C     C_1   0.080707 0.124957 0.946425 0.194640
N15   N     N_1   0.091774 0.097540 0.925409 -0.162522
C384  C     C_1   0.127295 0.146230 0.043738 0.160342
N16   N     N_1   0.158272 0.127755 0.062541 -0.169658
C385  C     C_1   0.362212 0.153922 0.043617 0.164824
N17   N     N_1   0.328915 0.137493 0.062143 -0.174838
C386  C     C_1   0.409794 0.129346 0.947823 0.172829
N18   N     N_1   0.397072 0.102223 0.927020 -0.190189
C387  C     C_1   0.362178 0.846053 0.956382 0.164834
N19   N     N_1   0.328876 0.862477 0.937856 -0.174826
C388  C     C_1   0.409754 0.870637 0.052175 0.172833
N20   N     N_1   0.397023 0.897758 0.072978 -0.190169
C389  C     C_1   0.362188 0.653940 0.543617 0.164833
N21   N     N_1   0.328887 0.637514 0.562143 -0.174829
C390  C     C_1   0.409766 0.629358 0.447824 0.172832
N22   N     N_1   0.397038 0.602237 0.427021 -0.190173
C391  C     C_1   0.362215 0.346079 0.456384 0.164826
N23   N     N_1   0.328918 0.362510 0.437857 -0.174838
C392  C     C_1   0.409797 0.370655 0.552178 0.172830
N24   N     N_1   0.397075 0.397778 0.572981 -0.190189
C393  C     C_1   0.862175 0.153950 0.543618 0.164835
N25   N     N_1   0.828872 0.137526 0.562144 -0.174825
C394  C     C_1   0.909751 0.129365 0.447826 0.172831
N26   N     N_1   0.897020 0.102244 0.427023 -0.190169
C395  C     C_1   0.862188 0.846059 0.456383 0.164832
N27   N     N_1   0.828886 0.862485 0.437857 -0.174828
C396  C     C_1   0.909765 0.870641 0.552176 0.172828
N28   N     N_1   0.897037 0.897763 0.572979 -0.190179
C397  C     C_1   0.862185 0.653943 0.043617 0.164833
N29   N     N_1   0.828883 0.637517 0.062144 -0.174824
C398  C     C_1   0.909762 0.629360 0.947825 0.172829
N30   N     N_1   0.897033 0.602238 0.927022 -0.190176
C399  C     C_1   0.862174 0.346050 0.956382 0.164836
N31   N     N_1   0.828871 0.362474 0.937856 -0.174822
C400  C     C_1   0.909751 0.370635 0.052174 0.172831
N32   N     N_1   0.897020 0.397756 0.072977 -0.190168
H81   H     H_    0.339179 0.256274 0.149491 0.134267
H82   H     H_    0.346581 0.207572 0.674204 0.125711
H83   H     H_    0.339183 0.743710 0.850504 0.134237
H84   H     H_    0.346559 0.791432 0.326871 0.126281
H85   H     H_    0.339182 0.756288 0.649495 0.134240
H86   H     H_    0.346561 0.708580 0.173104 0.126300
H87   H     H_    0.339180 0.243725 0.350509 0.134269
H88   H     H_    0.346579 0.292422 0.825810 0.125712
H89   H     H_    0.839183 0.256294 0.649497 0.134228
H90   H     H_    0.846553 0.208849 0.172839 0.126463
H91   H     H_    0.839182 0.743713 0.350505 0.134243
H92   H     H_    0.846559 0.791525 0.826749 0.126231
H93   H     H_    0.839183 0.756289 0.149495 0.134240
H94   H     H_    0.846560 0.708464 0.673269 0.126223
H95   H     H_    0.839184 0.243705 0.850503 0.134228
H96   H     H_    0.846552 0.291126 0.327189 0.126473
H97   H     H_    0.713825 0.195883 0.586230 0.153619
H98   H     H_    0.708197 0.167979 0.108347 0.141496
H99   H     H_    0.713825 0.804131 0.413761 0.153626
H100  H     H_    0.708204 0.832549 0.891054 0.141512
H101  H     H_    0.713826 0.695872 0.086237 0.153627
H102  H     H_    0.708205 0.667445 0.608958 0.141514
H103  H     H_    0.713825 0.304114 0.913772 0.153620
H104  H     H_    0.708197 0.332007 0.391676 0.141491
H105  H     H_    0.213826 0.195839 0.086257 0.153640
H106  H     H_    0.208220 0.166224 0.610297 0.141521
H107  H     H_    0.213826 0.804123 0.913767 0.153625
H108  H     H_    0.208203 0.832423 0.391230 0.141497
H109  H     H_    0.213825 0.695869 0.586239 0.153625
H110  H     H_    0.208204 0.667580 0.108769 0.141496
H111  H     H_    0.213827 0.304158 0.413745 0.153639
H112  H     H_    0.208216 0.333771 0.889713 0.141517
C401  C     C_1   0.173344 0.179665 0.175982 0.231722
N33   N     N_1   0.148042 0.153846 0.183628 -0.156500
C402  C     C_1   0.142673 0.198117 0.670791 0.132220
N34   N     N_1   0.098798 0.193123 0.667117 -0.204164
C403  C     C_1   0.173345 0.820318 0.824050 0.231727
N35   N     N_1   0.148044 0.846140 0.816414 -0.156488
C404  C     C_1   0.142706 0.801507 0.329701 0.132411
N36   N     N_1   0.098860 0.806707 0.333168 -0.204209
C405  C     C_1   0.173345 0.679678 0.675958 0.231723
N37   N     N_1   0.148044 0.653857 0.683596 -0.156491
C406  C     C_1   0.142714 0.698501 0.170288 0.132425
N38   N     N_1   0.098869 0.693300 0.166806 -0.204219
C407  C     C_1   0.173344 0.320333 0.324022 0.231718
N39   N     N_1   0.148042 0.346152 0.316377 -0.156500
C408  C     C_1   0.142670 0.301880 0.829215 0.132217
N40   N     N_1   0.098793 0.306871 0.832886 -0.204158
C409  C     C_1   0.673346 0.179684 0.675946 0.231721
N41   N     N_1   0.648044 0.153862 0.683579 -0.156488
C410  C     C_1   0.642723 0.198626 0.170133 0.132489
N42   N     N_1   0.598887 0.193372 0.166696 -0.204227
C411  C     C_1   0.673345 0.820321 0.324043 0.231723
N43   N     N_1   0.648043 0.846143 0.316406 -0.156490
C412  C     C_1   0.642709 0.801543 0.829647 0.132406
N44   N     N_1   0.598862 0.806728 0.833145 -0.204217
C413  C     C_1   0.673346 0.679680 0.175955 0.231732
N45   N     N_1   0.648044 0.653858 0.183592 -0.156485
C414  C     C_1   0.642711 0.698459 0.670352 0.132411
N46   N     N_1   0.598864 0.693277 0.666846 -0.204216
C415  C     C_1   0.673346 0.320314 0.824057 0.231728
N47   N     N_1   0.648045 0.346137 0.816424 -0.156481
C416  C     C_1   0.642720 0.301398 0.329835 0.132484
N48   N     N_1   0.598885 0.306665 0.333245 -0.204235
H113  H     H_    0.922980 0.031702 0.214805 0.183956
H114  H     H_    0.922732 0.032032 0.785114 0.183562
H115  H     H_    0.922984 0.968299 0.785202 0.183941
H116  H     H_    0.922731 0.967969 0.214885 0.183571
H117  H     H_    0.922988 0.531701 0.714790 0.183942
H118  H     H_    0.922724 0.532029 0.285099 0.183575
H119  H     H_    0.922968 0.468295 0.285167 0.183959
H120  H     H_    0.922736 0.467968 0.714877 0.183563
H121  H     H_    0.422941 0.031709 0.714885 0.183911
H122  H     H_    0.422727 0.032030 0.285113 0.183570
H123  H     H_    0.422975 0.968297 0.285190 0.183946
H124  H     H_    0.422709 0.967975 0.714931 0.183566
H125  H     H_    0.422995 0.531699 0.214768 0.183944
H126  H     H_    0.422729 0.532031 0.785114 0.183557
H127  H     H_    0.422978 0.468298 0.785195 0.183908
H128  H     H_    0.422738 0.467966 0.214865 0.183564
C417  C     C_1   0.581648 0.460838 0.192056 0.172548
N49   N     N_1   0.622700 0.448409 0.190009 -0.168954
C418  C     C_1   0.581868 0.462782 0.808875 0.167369
N50   N     N_1   0.622969 0.450528 0.811380 -0.165678
C419  C     C_1   0.581632 0.539158 0.807966 0.172546
N51   N     N_1   0.622685 0.551585 0.810022 -0.168960
C420  C     C_1   0.581897 0.537215 0.191165 0.167376
N52   N     N_1   0.623001 0.549466 0.188682 -0.165692
C421  C     C_1   0.581598 0.960850 0.691986 0.172558
N53   N     N_1   0.622654 0.948429 0.689909 -0.168952
C422  C     C_1   0.581864 0.962781 0.308883 0.167364
N54   N     N_1   0.622964 0.950528 0.311391 -0.165667
C423  C     C_1   0.581630 0.039156 0.307969 0.172552
N55   N     N_1   0.622684 0.051582 0.310026 -0.168953
C424  C     C_1   0.581809 0.037226 0.691037 0.167353
N56   N     N_1   0.622904 0.049484 0.688486 -0.165633
C425  C     C_1   0.081641 0.460840 0.692048 0.172538
N57   N     N_1   0.122694 0.448412 0.689997 -0.168988
C426  C     C_1   0.081850 0.462779 0.308903 0.167359
N58   N     N_1   0.122948 0.450524 0.311423 -0.165656
C427  C     C_1   0.081622 0.539155 0.307980 0.172553
N59   N     N_1   0.122676 0.551580 0.310042 -0.168960
C428  C     C_1   0.081882 0.537217 0.691146 0.167366
N60   N     N_1   0.122984 0.549470 0.688651 -0.165695
C429  C     C_1   0.081635 0.960842 0.192037 0.172548
N61   N     N_1   0.122688 0.948415 0.189982 -0.168959
C430  C     C_1   0.081877 0.962783 0.808863 0.167367
N62   N     N_1   0.122979 0.950531 0.811362 -0.165691
C431  C     C_1   0.081635 0.039160 0.807961 0.172539
N63   N     N_1   0.122688 0.051588 0.810017 -0.168982
C432  C     C_1   0.081871 0.037218 0.191127 0.167367
N64   N     N_1   0.122972 0.049472 0.188624 -0.165670
C433  C     C_1   0.501888 0.460339 0.149428 0.167946
N65   N     N_1   0.480869 0.447520 0.114205 -0.185550
C434  C     C_1   0.501905 0.463289 0.851061 0.165533
N66   N     N_1   0.480812 0.451443 0.886384 -0.181307
C435  C     C_1   0.501861 0.539665 0.850572 0.167939
N67   N     N_1   0.480835 0.552488 0.885790 -0.185571
C436  C     C_1   0.501954 0.536715 0.148939 0.165558
N68   N     N_1   0.480881 0.548564 0.113605 -0.181226
C437  C     C_1   0.501803 0.960327 0.649424 0.167924
N69   N     N_1   0.480760 0.947498 0.614221 -0.185580
C438  C     C_1   0.501897 0.963290 0.351062 0.165554
N70   N     N_1   0.480801 0.951445 0.386384 -0.181238
C439  C     C_1   0.501859 0.039665 0.350574 0.167939
N71   N     N_1   0.480832 0.052488 0.385791 -0.185549
C440  C     C_1   0.501799 0.036703 0.648936 0.165528
N72   N     N_1   0.480664 0.048543 0.613634 -0.181334
C441  C     C_1   0.001877 0.460336 0.649430 0.167943
N73   N     N_1   0.980854 0.447515 0.614210 -0.185552
C442  C     C_1   0.001871 0.463292 0.351060 0.165560
N74   N     N_1   0.980764 0.451448 0.386377 -0.181221
C443  C     C_1   0.001844 0.539668 0.350572 0.167933
N75   N     N_1   0.980813 0.552492 0.385785 -0.185552
C444  C     C_1   0.001929 0.536713 0.648942 0.165554
N76   N     N_1   0.980845 0.548560 0.613614 -0.181230
C445  C     C_1   0.001865 0.960335 0.149428 0.167937
N77   N     N_1   0.980839 0.947513 0.114211 -0.185550
C446  C     C_1   0.001919 0.963287 0.851059 0.165554
N78   N     N_1   0.980831 0.951440 0.886385 -0.181234
C447  C     C_1   0.001865 0.039663 0.850570 0.167942
N79   N     N_1   0.980839 0.052484 0.885788 -0.185558
C448  C     C_1   0.001908 0.036711 0.148940 0.165561
N80   N     N_1   0.980816 0.048557 0.113616 -0.181214
H129  H     H_    0.511898 0.469534 0.328939 0.187686
H130  H     H_    0.512719 0.467219 0.671510 0.188010
H131  H     H_    0.511920 0.530463 0.671065 0.187685
H132  H     H_    0.512681 0.532777 0.328496 0.188016
H133  H     H_    0.511968 0.969543 0.828925 0.187685
H134  H     H_    0.512725 0.967219 0.171511 0.188004
H135  H     H_    0.511921 0.030462 0.171066 0.187686
H136  H     H_    0.512804 0.032787 0.828478 0.187992
H137  H     H_    0.011910 0.469536 0.828938 0.187676
H138  H     H_    0.012749 0.467217 0.171513 0.187998
H139  H     H_    0.011936 0.530461 0.171068 0.187682
H140  H     H_    0.012703 0.532779 0.828494 0.188005
H141  H     H_    0.011919 0.969537 0.328936 0.187682
H142  H     H_    0.012712 0.967221 0.671507 0.188005
H143  H     H_    0.011919 0.030465 0.671063 0.187676
H144  H     H_    0.012719 0.032780 0.328491 0.188004

loop_
_geom_bond_atom_site_label_1
_geom_bond_atom_site_label_2
_ccdc_geom_bond_type
C39   C276  S    
O7    Zn29  S    
C376  N8    T    
O100  Zn28  S    
C75   C107  S    
C126  C127  S    
C287  O67   A    
C350  C414  S    
C338  C354  A    
C369  N1    T    
C56   C104  S    
C281  O57   A    
C420  N52   T    
C276  O46   A    
C234  C250  A    
O3    Zn21  S    
C114  C115  S    
C197  C213  A    
C36   C356  A    
C319  C335  A    
C371  N3    T    
C37   C361  A    
C352  C368  A    
C49   H128  S    
C175  O39   A    
C383  N15   T    
C258  C369  S    
C305  C321  A    
C238  C254  A    
C77   C429  S    
C119  H138  S    
C163  O27   A    
C302  H94   S    
C295  H87   S    
C389  N21   T    
C119  H42   S    
C65   C433  S    
O1    Zn17  S    
C64   C112  S    
C25   C45   A    
C38   C368  A    
C430  N62   T    
O4    Zn20  S    
C270  C381  S    
C286  O72   A    
O51   Zn27  S    
O6    Zn10  S    
C172  C221  S    
C4    O12   A    
O30   Zn22  S    
C59   H75   S    
C33   C359  A    
C5    O13   A    
C86   C134  T    
C247  H23   S    
C239  C240  A    
C169  O81   A    
C248  H24   S    
C55   H71   S    
C80   C448  S    
C285  O65   A    
C112  C129  S    
C336  C352  A    
C165  O77   A    
O52   Zn28  S    
O16   Zn2   S    
O53   Zn29  S    
C199  C200  A    
C443  N75   T    
C151  H7    S    
O40   Zn32  S    
C298  C314  A    
C78   C446  S    
O5    Zn15  S    
C191  C399  S    
C342  C406  S    
C34   C354  A    
C318  C334  A    
C37   C367  A    
O37   Zn29  S    
C67   C435  S    
C318  H60   S    
C300  C316  A    
C23   C359  A    
C290  C306  A    
C127  H34   S    
O8    Zn14  S    
C412  N44   T    
C46   C286  S    
C27   C299  A    
C272  C383  S    
C273  O47   A    
C163  O75   A    
O82   Zn10  S    
C217  C233  A    
C307  H53   S    
C31   C367  A    
C12   O100  A    
C407  N39   T    
C350  C366  A    
C221  C237  A    
C3    C92   S    
C121  H136  S    
C162  O74   A    
C352  C416  S    
C183  C184  A    
C36   C279  S    
C83   C131  T    
C229  C230  A    
C123  H134  S    
C347  C363  A    
C187  C395  S    
C111  C130  S    
C81   C129  T    
C227  C228  A    
C228  C244  A    
C39   C365  A    
C79   C447  S    
C65   C68   S    
C259  C372  S    
C80   C112  S    
C109  C132  S    
C10   O98   A    
C71   C423  S    
C192  C400  S    
C297  H89   S    
C110  C131  S    
C168  O80   A    
C276  O44   A    
C393  N25   T    
C30   C366  A    
C43   C283  S    
O20   Zn14  S    
C98   C127  S    
O3    Zn19  S    
O59   Zn5   S    
C176  C217  S    
C2    O90   A    
C239  C255  A    
C395  N27   T    
C152  H8    S    
C51   H67   S    
C346  C410  S    
O7    Zn11  S    
C398  N30   T    
C198  C214  A    
C310  H52   S    
C378  N10   T    
C154  C201  A    
C213  C229  A    
C329  C345  A    
C87   C135  T    
O22   Zn12  S    
O69   Zn11  S    
C161  O25   A    
O70   Zn12  S    
C78   C79   S    
C158  C205  A    
C168  C209  S    
O46   Zn22  S    
C231  C247  A    
O31   Zn23  S    
C289  H81   S    
C15   O23   A    
C69   C101  S    
C11   C84   S    
O85   Zn13  S    
C385  N17   T    
O8    Zn30  S    
C23   C41   A    
O4    Zn22  S    
C40   C364  A    
C271  C384  S    
O80   Zn8   S    
C291  C307  A    
C296  H88   S    
C108  C133  S    
O41   Zn17  S    
C223  C239  A    
C387  N19   T    
C319  H57   S    
C32   C304  A    
C68   C436  S    
O2    Zn24  S    
C337  C353  A    
C58   H119  S    
C176  O40   A    
C35   C355  A    
C333  C349  A    
C84   C132  T    
C102  C139  S    
C63   C111  S    
C174  O38   A    
C172  O36   A    
C177  C178  A    
C20   C292  A    
C49   C97   S    
C195  C196  A    
C10   O18   A    
C147  C179  A    
C410  N42   T    
C296  C312  A    
C193  C194  A    
O76   Zn4   S    
C155  C187  A    
O104  Zn32  S    
O5    Zn9   S    
C377  N9    T    
C289  C305  A    
C190  C398  S    
C34   C360  A    
C271  C272  A    
C166  O30   A    
C248  C264  A    
C64   H113  S    
C156  H12   S    
C207  C223  A    
C379  N11   T    
C63   H114  S    
C69   C421  S    
C380  N12   T    
C20   C356  A    
C245  C261  A    
O15   Zn1   S    
C117  H44   S    
C381  N13   T    
C280  O52   A    
C172  O84   A    
C49   H65   S    
C118  H43   S    
C179  C387  S    
C314  C330  A    
C375  N7    T    
O1    Zn7   S    
O6    Zn32  S    
C154  C186  A    
C57   H120  S    
C174  O86   A    
C29   C47   A    
C199  C215  A    
C127  H130  S    
C30   C48   A    
C181  C389  S    
C107  C134  S    
C18   C42   A    
C61   H116  S    
O47   Zn23  S    
C439  N71   T    
C163  C214  S    
C268  C379  S    
O23   Zn9   S    
C194  C210  A    
C173  O85   A    
C390  N22   T    
O95   Zn23  S    
C283  O59   A    
C425  N57   T    
C146  C178  A    
O78   Zn6   S    
C257  C258  A    
C448  N80   T    
O81   Zn9   S    
C338  C402  S    
O26   Zn18  S    
C77   C445  S    
C7    O95   A    
O89   Zn17  S    
C153  H9    S    
O55   Zn31  S    
C312  C328  A    
C294  C310  A    
C16   C87   S    
O102  Zn30  S    
C105  C120  S    
C52   H68   S    
C233  C234  A    
O7    Zn13  S    
C150  C197  A    
C73   C425  S    
C308  C324  A    
C159  H15   S    
C259  C260  A    
C4    C91   S    
C229  C245  A    
C124  H133  S    
C297  C313  A    
C113  H144  S    
C64   H80   S    
C66   C67   S    
C145  H1    S    
C260  C371  S    
C237  C238  A    
C115  H142  S    
C210  C226  A    
C3    O11   A    
C411  N43   T    
C8    C95   S    
C345  C409  S    
C236  C252  A    
C97   C128  S    
C1    O9    A    
C120  H41   S    
C24   C296  A    
C254  H30   S    
C445  N77   T    
C99   C126  S    
C33   C278  S    
O36   Zn28  S    
O75   Zn3   S    
C288  O70   A    
C50   C98   S    
C101  C124  S    
O88   Zn16  S    
C35   C280  S    
C94   C142  T    
C219  C235  A    
C21   C293  A    
C70   C422  S    
C26   C298  A    
C85   C133  T    
C246  C262  A    
C183  C391  S    
C53   C101  S    
C315  H61   S    
C307  C323  A    
C18   C354  A    
O68   Zn14  S    
O57   Zn7   S    
C173  O37   A    
C52   C100  S    
C59   C107  S    
C406  N38   T    
O45   Zn21  S    
C232  C248  A    
C196  C212  A    
C69   C72   S    
C39   C363  A    
C68   C100  S    
C97   C144  S    
C419  N51   T    
O61   Zn3   S    
O35   Zn27  S    
C37   C274  S    
C322  C338  A    
O62   Zn4   S    
C148  C195  A    
C73   C105  S    
C374  N6    T    
C310  C326  A    
O99   Zn27  S    
C436  N68   T    
C426  N58   T    
C126  H131  S    
C265  C378  S    
C158  H14   S    
O65   Zn15  S    
C25   C361  A    
C147  C196  A    
C31   C303  A    
O91   Zn19  S    
C77   C109  S    
C347  C411  S    
C109  C116  S    
C73   C441  S    
C332  C348  A    
C343  C359  A    
C284  O62   A    
C63   H79   S    
C244  H20   S    
C405  N37   T    
C157  H13   S    
C326  H110  S    
C117  H140  S    
O10   Zn8   S    
C128  H33   S    
C75   C427  S    
C278  O56   A    
C326  C342  A    
C315  C331  A    
O13   Zn3   S    
C320  H58   S    
C6    O94   A    
C150  H6    S    
C279  O53   A    
C53   C56   S    
C27   C47   A    
O4    Zn6   S    
C54   C55   S    
C28   C48   A    
C72   C440  S    
O103  Zn31  S    
C14   O102  A    
O49   Zn25  S    
C151  C200  A    
C334  H102  S    
C162  O26   A    
C266  C377  S    
C57   H73   S    
C7    O15   A    
C230  C246  A    
C253  H29   S    
C169  O33   A    
C432  N64   T    
C165  C212  S    
C151  C183  A    
C208  C224  A    
O50   Zn26  S    
C149  C198  A    
C78   C430  S    
C348  C412  S    
C241  C257  A    
C21   C357  A    
C330  C346  A    
C170  O82   A    
C56   H121  S    
C327  H111  S    
C391  N23   T    
C55   H122  S    
C65   C417  S    
C294  H86   S    
C36   C358  A    
C206  C222  A    
O1    Zn1   S    
C278  O50   A    
C200  C216  A    
C281  O63   A    
C306  C322  A    
C197  C198  A    
C247  C263  A    
O17   Zn15  S    
O43   Zn19  S    
C416  N48   T    
O19   Zn13  S    
C284  O60   A    
C25   C297  A    
C424  N56   T    
C275  O45   A    
C19   C355  A    
C344  C408  S    
C255  H31   S    
C24   C360  A    
C300  H92   S    
C156  C203  A    
O25   Zn17  S    
C28   C300  A    
C311  C327  A    
O1    Zn23  S    
C15   C88   S    
C11   O99   A    
C71   C439  S    
C149  C181  A    
O28   Zn20  S    
C95   C143  T    
C1    C90   S    
O42   Zn18  S    
O101  Zn29  S    
C106  C119  S    
C282  O58   A    
C24   C42   A    
C286  O66   A    
C446  N78   T    
C203  C204  A    
C309  C325  A    
C160  H16   S    
C250  H26   S    
C5    C94   S    
C235  C236  A    
C233  C249  A    
C434  N66   T    
C150  C182  A    
C181  C182  A    
C295  C311  A    
C7    C96   S    
C292  H84   S    
C158  C190  A    
O34   Zn26  S    
C204  C220  A    
C76   C428  S    
C128  H129  S    
C237  C253  A    
C72   C424  S    
C225  C226  A    
C397  N29   T    
C100  C141  S    
C339  C403  S    
O64   Zn2   S    
O74   Zn2   S    
C169  C224  S    
C11   O19   A    
C225  C241  A    
C444  N76   T    
C44   C284  S    
C76   C444  S    
C9    O17   A    
C104  C137  S    
C201  C217  A    
C440  N72   T    
C401  N33   T    
C267  C380  S    
C351  C415  S    
C67   C419  S    
C173  C220  S    
C71   C103  S    
C180  C388  S    
C328  C344  A    
C66   C434  S    
C53   H69   S    
C252  C268  A    
C253  C269  A    
C164  O28   A    
C125  H36   S    
C244  C260  A    
C343  C407  S    
C325  C341  A    
C126  H35   S    
C16   O24   A    
C70   C71   S    
C166  O78   A    
O60   Zn6   S    
C33   C353  A    
C22   C358  A    
C121  H40   S    
C67   C99   S    
C9    C82   S    
C293  C309  A    
C122  H39   S    
O98   Zn26  S    
C156  C188  A    
C116  H45   S    
C148  C180  A    
C19   C291  A    
C431  N63   T    
O24   Zn10  S    
C428  N60   T    
C256  H32   S    
C209  C225  A    
C28   C364  A    
C23   C295  A    
C108  C117  S    
O6    Zn16  S    
C344  C360  A    
C19   C43   A    
C317  H59   S    
C301  H93   S    
O84   Zn12  S    
O94   Zn22  S    
C113  H48   S    
C184  C392  S    
C325  H109  S    
C114  H47   S    
C299  H91   S    
C207  C208  A    
C340  C356  A    
C159  C191  A    
C305  H55   S    
C250  C266  A    
O12   Zn6   S    
C117  C120  S    
O33   Zn25  S    
C418  N50   T    
C57   C60   S    
C203  C219  A    
C72   C104  S    
C40   C275  S    
C58   C59   S    
C403  N35   T    
C13   O101  A    
C316  C332  A    
C191  C192  A    
C152  C199  A    
C333  H101  S    
C324  C340  A    
C2    C89   S    
C122  H135  S    
C423  N55   T    
C285  O71   A    
O72   Zn10  S    
C166  C211  S    
C18   C290  A    
C74   C442  S    
C254  C270  A    
O44   Zn20  S    
C404  N36   T    
C176  O88   A    
C189  C397  S    
C267  C268  A    
C49   C52   S    
O2    Zn8   S    
O4    Zn4   S    
C314  H64   S    
C275  O43   A    
C50   C51   S    
C243  C259  A    
C146  C193  A    
C273  O41   A    
C308  H54   S    
C35   C357  A    
C293  H85   S    
C91   C139  T    
C27   C363  A    
C51   H126  S    
C29   C365  A    
C394  N26   T    
C34   C277  S    
C302  C318  A    
O8    Zn28  S    
C89   C137  T    
C282  O64   A    
C175  C218  S    
C1    O89   A    
C414  N46   T    
C103  C138  S    
C68   C420  S    
C309  H51   S    
C50   H66   S    
C329  H97   S    
C92   C140  T    
O21   Zn11  S    
C93   C141  T    
C322  H106  S    
C69   C437  S    
C153  C202  A    
C77   C80   S    
C61   H77   S    
C148  H4    S    
C155  H11   S    
O27   Zn19  S    
C54   C102  S    
O18   Zn16  S    
C263  C376  S    
C157  C206  A    
C167  C210  S    
C303  H95   S    
C392  N24   T    
C70   C102  S    
C38   C273  S    
C337  C401  S    
C179  C180  A    
C75   C443  S    
C323  H107  S    
C10   C81   S    
C252  H28   S    
C38   C362  A    
O79   Zn7   S    
C8    O96   A    
C429  N61   T    
C175  O87   A    
C115  H46   S    
C346  C362  A    
C245  H21   S    
C187  C188  A    
C224  C240  A    
C47   C287  S    
C227  C243  A    
C48   C288  S    
C66   C98   S    
C185  C186  A    
C435  N67   T    
C334  C350  A    
C53   H124  S    
C52   H125  S    
C14   O22   A    
O71   Zn9   S    
O2    Zn2   S    
C111  C114  S    
C74   C106  S    
C324  H108  S    
O87   Zn15  S    
C189  C190  A    
C60   H117  S    
C171  O83   A    
C62   H115  S    
O63   Zn1   S    
C306  H56   S    
C226  C242  A    
C26   C46   A    
O73   Zn1   S    
C170  C223  S    
C212  C228  A    
O6    Zn26  S    
C4    O92   A    
C171  O35   A    
C413  N45   T    
C31   C45   A    
C345  C361  A    
C384  N16   T    
C261  C262  A    
C243  H19   S    
O77   Zn5   S    
C174  C219  S    
C6    O14   A    
C74   C426  S    
C103  C122  S    
C110  C115  S    
C332  H100  S    
C29   C301  A    
C58   H74   S    
C57   C105  S    
C402  N34   T    
C323  C339  A    
C98   C143  S    
C61   C64   S    
C201  C202  A    
C287  O69   A    
C99   C142  S    
C388  N20   T    
C246  H22   S    
C235  C251  A    
C370  N2    T    
C61   C109  S    
C373  N5    T    
O5    Zn25  S    
O97   Zn25  S    
C159  C208  A    
O5    Zn31  S    
C255  C271  A    
C205  C206  A    
C256  C272  A    
C62   H78   S    
C433  N65   T    
C62   C63   S    
C241  H17   S    
O3    Zn5   S    
C215  C231  A    
C79   C431  S    
C274  O48   A    
C301  C317  A    
C304  C320  A    
C437  N69   T    
C17   C289  A    
C41   C281  S    
C304  H96   S    
C303  C319  A    
O93   Zn21  S    
O48   Zn24  S    
C96   C144  T    
C32   C46   A    
C249  C265  A    
C298  H90   S    
C55   C103  S    
C269  C270  A    
O96   Zn24  S    
O32   Zn24  S    
C240  C256  A    
O86   Zn14  S    
C118  C119  S    
C121  C124  S    
C177  C385  S    
C154  H10   S    
O92   Zn20  S    
C216  C232  A    
C21   C43   A    
C280  O54   A    
C348  C364  A    
C22   C44   A    
C288  O68   A    
C317  C333  A    
O56   Zn32  S    
C30   C302  A    
C13   C86   S    
C76   C108  S    
C125  C128  S    
C351  C367  A    
C386  N18   T    
C8    O16   A    
C106  C135  S    
C202  C218  A    
C316  H62   S    
C152  C184  A    
C32   C368  A    
O29   Zn21  S    
C242  C258  A    
C292  C308  A    
C331  C347  A    
C113  C116  S    
C20   C44   A    
C6    C93   S    
C60   C108  S    
C114  H143  S    
C339  C355  A    
C320  C336  A    
C120  H137  S    
C441  N73   T    
C112  C113  S    
C42   C282  S    
C101  C140  S    
C17   C41   A    
C162  C215  S    
O2    Zn18  S    
C422  N54   T    
C51   C99   S    
C178  C386  S    
C220  C236  A    
C349  C413  S    
C116  H141  S    
C283  O61   A    
C15   O103  A    
C74   C75   S    
C88   C136  T    
C100  C125  S    
C331  H99   S    
C313  H63   S    
C161  O73   A    
C218  C234  A    
C341  C405  S    
C321  H105  S    
C147  H3    S    
C400  N32   T    
C274  O42   A    
C149  H5    S    
C104  C121  S    
C54   H70   S    
C312  H50   S    
C417  N49   T    
C40   C366  A    
C17   C353  A    
C222  C238  A    
C188  C396  S    
O58   Zn8   S    
C58   C106  S    
C311  H49   S    
C90   C138  T    
C251  C267  A    
C124  H37   S    
C335  C351  A    
C66   C418  S    
C9    O97   A    
C164  O76   A    
C102  C123  S    
C195  C211  A    
C45   C285  S    
C193  C209  A    
C382  N14   T    
C62   C110  S    
C125  H132  S    
C26   C362  A    
C277  O55   A    
C421  N53   T    
C145  C194  A    
C80   C432  S    
C269  C382  S    
C78   C110  S    
O38   Zn30  S    
O66   Zn16  S    
O90   Zn18  S    
C447  N79   T    
O54   Zn30  S    
C105  C136  S    
C327  C343  A    
C59   H118  S    
C70   C438  S    
O9    Zn7   S    
C313  C329  A    
O7    Zn27  S    
C261  C374  S    
C118  H139  S    
O11   Zn5   S    
C82   C130  T    
C242  H18   S    
C249  H25   S    
C155  C204  A    
C342  C358  A    
O83   Zn11  S    
C438  N70   T    
C171  C222  S    
C167  O31   A    
C330  H98   S    
O14   Zn4   S    
C264  C375  S    
C265  C266  A    
C5    O93   A    
C408  N40   T    
C54   H123  S    
C107  C118  S    
O3    Zn3   S    
C161  C216  S    
C22   C294  A    
C12   C83   S    
C14   C85   S    
C3    O91   A    
C409  N41   T    
O39   Zn31  S    
C168  O32   A    
C56   H72   S    
C165  O29   A    
C442  N74   T    
C2    O10   A    
C279  O51   A    
C299  C315  A    
C164  C213  S    
C340  C404  S    
C16   O104  A    
C186  C394  S    
C341  C357  A    
C79   C111  S    
C167  O79   A    
C123  H38   S    
C65   C97   S    
C262  C373  S    
C182  C390  S    
C160  C207  A    
C335  H103  S    
C328  H112  S    
C146  H2    S    
C399  N31   T    
C153  C185  A    
C50   H127  S    
C263  C264  A    
C321  C337  A    
C205  C221  A    
C73   C76   S    
C277  O49   A    
C415  N47   T    
C157  C189  A    
C336  H104  S    
O8    Zn12  S    
C160  C192  A    
C291  H83   S    
C372  N4    T    
C257  C370  S    
C251  H27   S    
C60   H76   S    
C145  C177  A    
C231  C232  A    
O67   Zn13  S    
C13   O21   A    
C211  C227  A    
C12   O20   A    
C122  C123  S    
C427  N59   T    
C185  C393  S    
C290  H82   S    
C396  N28   T    
C349  C365  A    
C170  O34   A    
C214  C230  A    
