data_mof_unit_4733.cif
_audit_creation_date              2012-12-11T15:50:46-0500
_audit_creation_method            fapswitch 2.2
_symmetry_space_group_name_H-M    P1
_symmetry_Int_Tables_number       1
_space_group_crystal_system       triclinic
_cell_length_a                    19.529843
_cell_length_b                    11.265537
_cell_length_c                    18.807404
_cell_angle_alpha                 90.700288
_cell_angle_beta                  90.935442
_cell_angle_gamma                 88.914981
_cell_volume                      4136.30832564

loop_
_atom_site_label
_atom_site_type_symbol
_atom_type_description
_atom_site_fract_x
_atom_site_fract_y
_atom_site_fract_z
_atom_type_partial_charge
C1    C     C_R   0.278184 0.031431 0.857160 0.553800
C2    C     C_R   0.712300 0.002847 0.139002 0.550846
C3    C     C_R   0.788330 0.504216 0.860161 0.560541
C4    C     C_R   0.212718 0.504726 0.138862 0.562980
C5    C     C_3   0.528878 0.706898 0.964828 -0.111374
C6    C     C_3   0.482735 0.740029 0.028161 -0.109468
C7    C     C_3   0.042096 0.252583 0.967724 -0.120527
C8    C     C_3   0.995091 0.202207 0.025133 -0.102665
C9    C     C_R   0.225093 0.536502 0.065028 -0.003907
C10   C     C_R   0.777087 0.534423 0.934392 0.002837
C11   C     C_R   0.724377 0.031336 0.064593 -0.003494
C12   C     C_R   0.268509 0.064199 0.931988 -0.003620
C13   C     C_R   0.288861 0.524190 0.033984 0.001688
C14   C     C_R   0.712554 0.537478 0.962797 -0.007979
C15   C     C_R   0.788395 0.026716 0.034105 0.001573
C16   C     C_R   0.203890 0.069289 0.960400 -0.033047
C17   C     C_R   0.298486 0.553912 0.964158 0.017722
C18   C     C_R   0.701863 0.564181 0.033163 -0.003796
C19   C     C_R   0.796794 0.055232 0.963743 0.000913
C20   C     C_R   0.194605 0.083344 0.033110 0.029774
C21   C     C_R   0.177921 0.614178 0.952160 -0.032347
C22   C     C_R   0.823168 0.595085 0.050307 -0.053696
C23   C     C_R   0.675944 0.111624 0.953178 -0.036797
C24   C     C_R   0.317098 0.076264 0.053227 -0.044791
C25   C     C_R   0.170770 0.586335 0.024376 -0.163384
C26   C     C_R   0.832025 0.569711 0.977781 -0.157217
C27   C     C_R   0.669069 0.072665 0.023574 -0.155595
C28   C     C_R   0.326000 0.069875 0.979108 -0.173486
C29   C     C_3   0.337834 0.421484 0.029856 -0.270005
C30   C     C_3   0.659565 0.446928 0.960672 -0.256939
C31   C     C_3   0.837185 0.925144 0.027644 -0.270448
C32   C     C_3   0.154488 0.973051 0.954367 -0.268257
C33   C     C_3   0.351687 0.458410 0.953628 -0.136023
C34   C     C_3   0.642027 0.484506 0.036385 -0.129595
C35   C     C_3   0.850736 0.962234 0.952013 -0.135780
C36   C     C_3   0.142654 0.987846 0.032973 -0.133476
C37   C     C_R   0.244098 0.592185 0.920828 0.014441
C38   C     C_R   0.756133 0.585859 0.079695 0.007243
C39   C     C_R   0.742367 0.092880 0.920753 0.011903
C40   C     C_R   0.250479 0.089309 0.079250 0.027157
C41   C     C_R   0.510474 0.837198 0.426202 0.009637
C42   C     C_R   0.487648 0.824519 0.572931 0.018525
C43   C     C_R   0.009478 0.339588 0.425629 0.008026
C44   C     C_R   0.985066 0.327840 0.572051 0.017104
C45   C     C_R   0.471082 0.819757 0.854036 0.544827
C46   C     C_R   0.559383 0.815394 0.137656 0.553136
C47   C     C_R   0.962630 0.319021 0.858432 0.548267
C48   C     C_R   0.030861 0.319434 0.144834 0.548808
C49   C     C_R   0.461727 0.761446 0.451720 0.006770
C50   C     C_R   0.450741 0.755267 0.523933 0.021105
C51   C     C_R   0.953522 0.279208 0.449989 -0.007514
C52   C     C_R   0.941452 0.273932 0.521941 0.025888
C53   C     C_R   0.540187 0.895170 0.548570 -0.187846
C54   C     C_R   0.552402 0.899180 0.475415 -0.170593
C55   C     C_R   0.036318 0.401591 0.547857 -0.190103
C56   C     C_R   0.049038 0.405767 0.474831 -0.174157
C57   C     C_3   0.386721 0.760991 0.434641 -0.292262
C58   C     C_3   0.375112 0.750015 0.513699 -0.254966
C59   C     C_3   0.933156 0.154753 0.436327 -0.279983
C60   C     C_3   0.921010 0.147525 0.515125 -0.262606
C61   C     C_R   0.221849 0.527385 0.436707 -0.008469
C62   C     C_R   0.763298 0.568926 0.571469 0.003492
C63   C     C_R   0.726060 0.034588 0.434378 0.001297
C64   C     C_R   0.260276 0.074083 0.573376 0.002629
C65   C     C_R   0.206763 0.641322 0.462369 0.006931
C66   C     C_R   0.819916 0.555965 0.526990 0.014897
C67   C     C_R   0.705247 0.145505 0.460836 0.004883
C68   C     C_R   0.316452 0.063393 0.528835 0.002522
C69   C     C_R   0.211064 0.667155 0.533549 0.033186
C70   C     C_R   0.815762 0.569311 0.454692 -0.001223
C71   C     C_R   0.709815 0.170621 0.531845 0.034549
C72   C     C_R   0.311217 0.074879 0.456675 -0.012921
C73   C     C_R   0.248615 0.467131 0.557902 -0.189477
C74   C     C_R   0.694061 0.615717 0.469647 -0.176810
C75   C     C_R   0.760267 0.976823 0.553192 -0.196565
C76   C     C_R   0.190338 0.121895 0.471876 -0.181802
C77   C     C_R   0.237067 0.437656 0.486188 -0.199672
C78   C     C_R   0.700725 0.604743 0.542422 -0.208026
C79   C     C_R   0.753046 0.948977 0.481033 -0.183004
C80   C     C_R   0.196895 0.107520 0.544746 -0.204729
C81   C     C_3   0.139288 0.703887 0.456397 -0.114324
C82   C     C_3   0.889147 0.609969 0.533222 -0.094453
C83   C     C_3   0.636402 0.203975 0.453639 -0.117435
C84   C     C_3   0.384355 0.121806 0.535228 -0.088999
C85   C     C_3   0.139015 0.719452 0.537057 -0.109085
C86   C     C_3   0.893665 0.593527 0.452491 -0.112077
C87   C     C_3   0.637344 0.221978 0.534727 -0.115372
C88   C     C_3   0.385908 0.112233 0.454159 -0.105242
C89   C     C_R   0.260068 0.637841 0.850747 0.537760
C90   C     C_R   0.740126 0.636743 0.149529 0.524492
C91   C     C_R   0.759559 0.137943 0.850707 0.532262
C92   C     C_R   0.238907 0.138844 0.149152 0.528771
C93   C     C_R   0.239972 0.584621 0.579774 0.012247
C94   C     C_R   0.750953 0.598080 0.424743 0.016028
C95   C     C_R   0.741214 0.089148 0.577708 0.009757
C96   C     C_R   0.247356 0.104667 0.427060 0.014288
C97   C     C_R   0.272313 0.044122 0.646523 0.530659
C98   C     C_R   0.711409 0.003532 0.361579 0.561555
C99   C     C_R   0.773357 0.542162 0.645475 0.542906
C100  C     C_R   0.210101 0.500525 0.361699 0.557553
C101  C     C_R   0.467491 0.821778 0.646626 0.543146
C102  C     C_R   0.532270 0.824684 0.353238 0.550814
C103  C     C_R   0.967292 0.321917 0.646417 0.549031
C104  C     C_R   0.032970 0.324598 0.353523 0.547154
C105  C     C_R   0.257602 0.631344 0.648296 0.535370
C106  C     C_R   0.740875 0.637976 0.354286 0.543054
C107  C     C_R   0.758223 0.133926 0.646831 0.543733
C108  C     C_R   0.239554 0.141305 0.355776 0.533837
C109  C     C_3   0.513918 0.925338 0.020269 -0.132542
C110  C     C_3   0.560098 0.891108 0.957066 -0.139341
C111  C     C_3   0.943962 0.374886 0.037250 -0.147470
C112  C     C_3   0.990780 0.425804 0.980296 -0.137498
C113  C     C_3   0.455665 0.849768 0.988081 -0.123755
C114  C     C_3   0.587210 0.781737 0.998143 -0.139988
C115  C     C_3   0.932679 0.264815 0.989867 -0.118171
C116  C     C_3   0.053913 0.364034 0.014083 -0.116699
C117  C     C_3   0.502035 0.818320 0.925929 0.060056
C118  C     C_3   0.540279 0.816433 0.060434 0.047721
C119  C     C_3   0.980265 0.317176 0.934323 0.057473
C120  C     C_3   0.006711 0.315545 0.070633 0.056536
Cr1   Cr    Cr6+3 0.229640 0.835880 0.747370 0.951235
Cr2   Cr    Cr6+3 0.770360 0.835880 0.252630 0.950282
Cr3   Cr    Cr6+3 0.729640 0.335880 0.747370 0.953063
Cr4   Cr    Cr6+3 0.270360 0.335880 0.252630 0.959759
Cr5   Cr    Cr6+3 0.387390 0.989720 0.750850 0.960175
Cr6   Cr    Cr6+3 0.612610 0.989720 0.249150 0.943764
Cr7   Cr    Cr6+3 0.887390 0.489720 0.750850 0.954440
Cr8   Cr    Cr6+3 0.112610 0.489720 0.249150 0.950712
Cr9   Cr    Cr6+3 0.385770 0.677220 0.749340 0.962705
Cr10  Cr    Cr6+3 0.614230 0.677220 0.250660 0.943331
Cr11  Cr    Cr6+3 0.885770 0.177220 0.749340 0.960223
Cr12  Cr    Cr6+3 0.114230 0.177220 0.250660 0.936571
H1    H     H_    0.400164 0.868784 0.981705 0.108190
H2    H     H_    0.642681 0.761683 0.002425 0.111402
H3    H     H_    0.881836 0.228001 0.977505 0.119879
H4    H     H_    0.105615 0.396672 0.025724 0.113170
H5    H     H_    0.976881 0.097854 0.419421 0.144913
H6    H     H_    0.866527 0.135879 0.527882 0.159155
H7    H     H_    0.371227 0.682160 0.402911 0.150110
H8    H     H_    0.347255 0.826901 0.537737 0.144583
H9    H     H_    0.367276 0.846219 0.412402 0.128790
H10   H     H_    0.356352 0.662185 0.528882 0.146615
H11   H     H_    0.885566 0.148495 0.403347 0.152828
H12   H     H_    0.958553 0.087017 0.541436 0.131141
H13   H     H_    0.259884 0.399717 0.596525 0.102688
H14   H     H_    0.644996 0.647866 0.449382 0.147413
H15   H     H_    0.776575 0.911275 0.590628 0.108830
H16   H     H_    0.141941 0.156804 0.451723 0.142179
H17   H     H_    0.103063 0.656870 0.561504 0.122337
H18   H     H_    0.917358 0.506053 0.440501 0.136400
H19   H     H_    0.601919 0.160055 0.560576 0.121001
H20   H     H_    0.416097 0.030628 0.440312 0.114996
H21   H     H_    0.533762 0.617739 0.939629 0.106065
H22   H     H_    0.450500 0.677492 0.057429 0.123574
H23   H     H_    0.082057 0.205112 0.936799 0.115407
H24   H     H_    0.991135 0.110706 0.045351 0.102427
H25   H     H_    0.122313 0.598293 0.049960 0.128199
H26   H     H_    0.880890 0.579514 0.953964 0.127790
H27   H     H_    0.620399 0.070615 0.048438 0.130505
H28   H     H_    0.377355 0.062013 0.958588 0.131934
H29   H     H_    0.808842 0.841101 0.030743 0.141487
H30   H     H_    0.182109 0.889682 0.940740 0.165661
H31   H     H_    0.311282 0.335564 0.034435 0.147940
H32   H     H_    0.686117 0.359484 0.957220 0.154205
H33   H     H_    0.382797 0.433562 0.066038 0.115358
H34   H     H_    0.619859 0.467854 0.919653 0.124235
H35   H     H_    0.881878 0.937435 0.063404 0.125820
H36   H     H_    0.110851 0.000199 0.919465 0.121179
O1    O     O_R   0.214300 0.709080 0.827500 -0.569582
O2    O     O_R   0.785700 0.709080 0.172500 -0.561737
O3    O     O_R   0.714300 0.209080 0.827500 -0.563576
O4    O     O_R   0.285700 0.209080 0.172500 -0.532259
O5    O     O_R   0.445900 0.919370 0.676500 -0.513956
O6    O     O_R   0.554100 0.919370 0.323500 -0.526104
O7    O     O_R   0.945900 0.419370 0.676500 -0.513131
O8    O     O_R   0.054100 0.419370 0.323500 -0.527135
O9    O     O_R   0.456660 0.717710 0.669820 -0.529509
O10   O     O_R   0.543340 0.717710 0.330180 -0.535075
O11   O     O_R   0.956660 0.217710 0.669820 -0.527168
O12   O     O_R   0.043340 0.217710 0.330180 -0.542757
O13   O     O_R   0.320590 0.625770 0.672930 -0.523179
O14   O     O_R   0.679410 0.625770 0.327070 -0.535682
O15   O     O_R   0.820590 0.125770 0.672930 -0.518503
O16   O     O_R   0.179410 0.125770 0.327070 -0.544234
O17   O     O_3   0.334270 0.834280 0.749190 -0.248973
O18   O     O_3   0.665730 0.834280 0.250810 -0.294780
O19   O     O_3   0.834270 0.334280 0.749190 -0.265371
O20   O     O_3   0.165730 0.334280 0.250810 -0.281424
O21   O     O_R   0.236190 0.958390 0.823150 -0.510480
O22   O     O_R   0.763810 0.958390 0.176850 -0.491976
O23   O     O_R   0.736190 0.458390 0.823150 -0.506844
O24   O     O_R   0.263810 0.458390 0.176850 -0.488333
O25   O     O_R   0.332090 0.075280 0.831290 -0.551317
O26   O     O_R   0.667910 0.075280 0.168710 -0.549659
O27   O     O_R   0.832090 0.575280 0.831290 -0.553518
O28   O     O_R   0.167910 0.575280 0.168710 -0.555819
O29   O     O_R   0.446280 0.918040 0.826620 -0.514491
O30   O     O_R   0.553720 0.918040 0.173380 -0.526048
O31   O     O_R   0.946280 0.418040 0.826620 -0.527762
O32   O     O_R   0.053720 0.418040 0.173380 -0.521693
O33   O     O_R   0.457080 0.716270 0.831760 -0.535120
O34   O     O_R   0.542920 0.716270 0.168240 -0.526964
O35   O     O_R   0.957080 0.216270 0.831760 -0.535881
O36   O     O_R   0.042920 0.216270 0.168240 -0.528725
O37   O     O_R   0.320980 0.624440 0.823040 -0.511698
O38   O     O_R   0.679020 0.624440 0.176960 -0.520123
O39   O     O_R   0.820980 0.124440 0.823040 -0.517901
O40   O     O_R   0.179020 0.124440 0.176960 -0.526357
O41   O     O_R   0.213880 0.710510 0.665560 -0.545278
O42   O     O_R   0.786120 0.710510 0.334440 -0.561381
O43   O     O_R   0.713880 0.210510 0.665560 -0.545931
O44   O     O_R   0.286120 0.210510 0.334440 -0.554746
O45   O     O_R   0.235800 0.959720 0.673040 -0.524791
O46   O     O_R   0.764200 0.959720 0.326960 -0.508110
O47   O     O_R   0.735800 0.459720 0.673040 -0.521923
O48   O     O_R   0.264200 0.459720 0.326960 -0.511641
O49   O     O_R   0.331670 0.076720 0.669350 -0.545664
O50   O     O_R   0.668330 0.076720 0.330650 -0.535958
O51   O     O_R   0.831670 0.576720 0.669350 -0.541046
O52   O     O_R   0.168330 0.576720 0.330650 -0.541042
H37   H     H_    0.571390 0.946030 0.585528 0.113065
H38   H     H_    0.595778 0.947385 0.457378 0.121773
H39   H     H_    0.068416 0.450033 0.585162 0.114566
H40   H     H_    0.093044 0.452369 0.457334 0.125390
H41   H     H_    0.237415 0.345742 0.470081 0.123762
H42   H     H_    0.657643 0.627611 0.574872 0.121386
H43   H     H_    0.764504 0.859865 0.462248 0.130900
H44   H     H_    0.153606 0.127341 0.577656 0.121389
H45   H     H_    0.098031 0.644906 0.436832 0.139072
H46   H     H_    0.926549 0.556577 0.564699 0.165606
H47   H     H_    0.596205 0.141321 0.435795 0.140450
H48   H     H_    0.423657 0.066091 0.563043 0.158920
C121  C     C_3   0.149329 0.813353 0.410997 -0.248865
C122  C     C_3   0.080510 0.850003 0.381002 -0.360756
C123  C     C_3   0.086113 0.961195 0.338790 -0.400835
H49   H     H_    0.131167 0.951396 0.304413 0.187644
H50   H     H_    0.042591 0.981762 0.302797 0.144394
H51   H     H_    0.089090 0.034042 0.378029 0.200567
H52   H     H_    0.062747 0.776092 0.346558 0.181097
H53   H     H_    0.044717 0.867397 0.425032 0.156017
H54   H     H_    0.174119 0.886520 0.440863 0.155446
H55   H     H_    0.183654 0.791710 0.365774 0.174386
C124  C     C_3   0.877593 0.741012 0.558026 -0.236686
C125  C     C_3   0.934310 0.790291 0.604095 -0.334254
C126  C     C_3   0.908174 0.902624 0.641686 -0.428563
H56   H     H_    0.861541 0.884360 0.671729 0.140855
H57   H     H_    0.945682 0.938148 0.679788 0.153188
H58   H     H_    0.894817 0.970713 0.602377 0.172285
H59   H     H_    0.950558 0.723557 0.644256 0.170453
H60   H     H_    0.977265 0.812675 0.569323 0.156148
H61   H     H_    0.867875 0.801392 0.512981 0.145243
H62   H     H_    0.831074 0.747654 0.590144 0.172360
C127  C     C_3   0.642175 0.312169 0.404968 -0.244063
C128  C     C_3   0.571243 0.346485 0.377755 -0.358338
C129  C     C_3   0.571257 0.457418 0.334084 -0.399903
H63   H     H_    0.612379 0.452593 0.294275 0.178346
H64   H     H_    0.521258 0.470167 0.306078 0.132892
H65   H     H_    0.579149 0.531759 0.371728 0.206434
H66   H     H_    0.549199 0.272198 0.346208 0.161431
H67   H     H_    0.540012 0.365419 0.424389 0.163192
H68   H     H_    0.667294 0.387391 0.432518 0.153264
H69   H     H_    0.674387 0.290096 0.358298 0.185274
C130  C     C_3   0.372057 0.247880 0.566916 -0.228193
C131  C     C_3   0.432742 0.297460 0.606126 -0.337476
C132  C     C_3   0.412486 0.418488 0.637997 -0.414692
H70   H     H_    0.361823 0.414637 0.663234 0.150990
H71   H     H_    0.447684 0.444637 0.680981 0.149565
H72   H     H_    0.410943 0.487669 0.596522 0.173082
H73   H     H_    0.448168 0.235181 0.648990 0.163484
H74   H     H_    0.475299 0.305441 0.568562 0.160333
H75   H     H_    0.353220 0.310634 0.527496 0.170568
H76   H     H_    0.330530 0.248863 0.605685 0.166109
C133  C     C_3   0.130134 0.848177 0.567609 -0.220418
C134  C     C_3   0.098188 0.859667 0.643068 -0.272739
C135  C     C_3   0.074253 0.985874 0.661854 -0.441741
H77   H     H_    0.118173 0.044369 0.671415 0.166543
H78   H     H_    0.040495 0.023230 0.619643 0.156263
H79   H     H_    0.047461 0.985879 0.713404 0.125726
H80   H     H_    0.057010 0.796219 0.649254 0.117630
H81   H     H_    0.132480 0.837946 0.687318 0.236955
H82   H     H_    0.180712 0.888385 0.567473 0.195391
H83   H     H_    0.095826 0.899810 0.531644 0.130675
C136  C     C_3   0.941387 0.686771 0.416449 -0.300154
C137  C     C_3   0.904918 0.761906 0.361875 -0.257676
C138  C     C_3   0.935398 0.864128 0.324215 -0.473208
H84   H     H_    0.894806 0.908447 0.291482 0.180199
H85   H     H_    0.952402 0.930521 0.363623 0.146339
H86   H     H_    0.973767 0.831705 0.285764 0.120788
H87   H     H_    0.894557 0.697933 0.317603 0.215423
H88   H     H_    0.863624 0.806718 0.392460 0.221412
H89   H     H_    0.966733 0.743684 0.456508 0.144897
H90   H     H_    0.983539 0.637152 0.389520 0.139728
C139  C     C_3   0.629394 0.351283 0.564028 -0.224987
C140  C     C_3   0.598185 0.364609 0.639546 -0.276162
C141  C     C_3   0.575232 0.491694 0.657759 -0.438800
H91   H     H_    0.619564 0.549138 0.667121 0.166024
H92   H     H_    0.541293 0.529496 0.615509 0.165706
H93   H     H_    0.549231 0.493184 0.709723 0.127446
H94   H     H_    0.556620 0.302294 0.646485 0.119272
H95   H     H_    0.632952 0.342082 0.683251 0.237423
H96   H     H_    0.680391 0.389836 0.563833 0.196015
H97   H     H_    0.595421 0.403113 0.527856 0.133752
C142  C     C_3   0.421768 0.213897 0.414276 -0.240137
C143  C     C_3   0.385155 0.334189 0.399885 -0.241517
C144  C     C_3   0.415301 0.444523 0.435756 -0.472427
H98   H     H_    0.372961 0.501386 0.455705 0.152990
H99   H     H_    0.448832 0.424222 0.481631 0.144061
H100  H     H_    0.443890 0.497137 0.397252 0.156017
H101  H     H_    0.383963 0.350024 0.341630 0.183799
H102  H     H_    0.332558 0.329434 0.417097 0.210658
H103  H     H_    0.470065 0.227498 0.444180 0.133234
H104  H     H_    0.437343 0.176479 0.361974 0.118088
H105  H     H_    0.510262 0.013413 0.045078 0.100585
H106  H     H_    0.592938 0.940568 0.921738 0.122206
H107  H     H_    0.903491 0.414223 0.070616 0.129478
H108  H     H_    0.981160 0.510515 0.957680 0.104616
C145  C     C_3   0.117587 0.665810 0.906555 -0.235813
C146  C     C_3   0.046191 0.689956 0.932776 -0.356068
C147  C     C_3   0.021071 0.819725 0.929795 -0.488600
H109  H     H_    0.034612 0.862146 0.879063 0.146747
H110  H     H_    0.965243 0.824147 0.932546 0.152108
H111  H     H_    0.039545 0.869831 0.976428 0.157145
H112  H     H_    0.011654 0.642521 0.895650 0.155938
H113  H     H_    0.043955 0.658835 0.986343 0.171247
H114  H     H_    0.130477 0.754721 0.890527 0.206746
H115  H     H_    0.112811 0.607804 0.858329 0.156231
C148  C     C_3   0.881222 0.643491 0.096300 -0.252918
C149  C     C_3   0.949790 0.670408 0.069597 -0.367900
C150  C     C_3   0.983062 0.762594 0.118458 -0.479075
H116  H     H_    0.950224 0.840129 0.132293 0.137164
H117  H     H_    0.995694 0.718762 0.169574 0.153904
H118  H     H_    0.026596 0.799619 0.090925 0.150623
H119  H     H_    0.982691 0.590190 0.071529 0.185303
H120  H     H_    0.941777 0.707879 0.016721 0.172548
H121  H     H_    0.864837 0.735513 0.103786 0.216073
H122  H     H_    0.886932 0.593087 0.146734 0.170204
C151  C     C_3   0.612469 0.167450 0.913848 -0.233749
C152  C     C_3   0.545641 0.190875 0.955907 -0.327083
C153  C     C_3   0.510270 0.308997 0.939450 -0.485878
H123  H     H_    0.530455 0.380933 0.973580 0.145797
H124  H     H_    0.515165 0.333575 0.882966 0.151900
H125  H     H_    0.456244 0.301279 0.953823 0.153701
H126  H     H_    0.508956 0.120209 0.941721 0.164917
H127  H     H_    0.553031 0.195405 0.013905 0.155155
H128  H     H_    0.624590 0.253777 0.891914 0.190872
H129  H     H_    0.600068 0.112018 0.866278 0.137653
C154  C     C_3   0.374855 0.048697 0.105841 -0.221474
C155  C     C_3   0.416735 0.157507 0.129406 -0.248852
C156  C     C_3   0.430737 0.158304 0.209973 -0.399702
H130  H     H_    0.388009 0.121248 0.240310 0.180227
H131  H     H_    0.477819 0.105700 0.222811 0.159102
H132  H     H_    0.436044 0.251048 0.229147 0.106409
H133  H     H_    0.465645 0.160614 0.101164 0.112555
H134  H     H_    0.389940 0.241094 0.114823 0.185423
H135  H     H_    0.352471 0.004845 0.152507 0.139904
H136  H     H_    0.407803 0.977615 0.086178 0.135717
H137  H     H_    0.403551 0.496826 0.949563 0.140206
H138  H     H_    0.593748 0.537654 0.038751 0.148417
H139  H     H_    0.902217 0.001983 0.947826 0.141029
H140  H     H_    0.091028 0.023380 0.044521 0.136840
C157  C     C_3   0.334622 0.363729 0.895746 -0.243882
C158  C     C_3   0.372869 0.386167 0.825769 -0.280978
C159  C     C_3   0.410124 0.276866 0.795216 -0.429088
H141  H     H_    0.426901 0.213279 0.836674 0.184779
H142  H     H_    0.376537 0.232144 0.755739 0.205971
H143  H     H_    0.457122 0.303907 0.767968 0.089591
H144  H     H_    0.335213 0.417644 0.785062 0.167917
H145  H     H_    0.411453 0.456724 0.833078 0.180418
H146  H     H_    0.348900 0.275393 0.916601 0.162780
H147  H     H_    0.278523 0.360717 0.884954 0.143572
C160  C     C_3   0.646630 0.384794 0.091423 -0.238230
C161  C     C_3   0.583150 0.390387 0.137981 -0.326946
C162  C     C_3   0.582759 0.286912 0.188319 -0.428382
H148  H     H_    0.570885 0.204822 0.158088 0.183128
H149  H     H_    0.632398 0.278053 0.217585 0.192804
H150  H     H_    0.542242 0.302697 0.227192 0.112129
H151  H     H_    0.582089 0.474624 0.169112 0.202906
H152  H     H_    0.535770 0.387635 0.104414 0.142571
H153  H     H_    0.648941 0.297162 0.064456 0.171027
H154  H     H_    0.693430 0.391545 0.125492 0.163408
C163  C     C_3   0.834410 0.865673 0.895297 -0.242202
C164  C     C_3   0.872171 0.887243 0.825101 -0.281311
C165  C     C_3   0.909508 0.777494 0.795216 -0.428560
H155  H     H_    0.924021 0.713704 0.836801 0.176313
H156  H     H_    0.876586 0.732623 0.755229 0.208875
H157  H     H_    0.957708 0.802946 0.769590 0.098733
H158  H     H_    0.833941 0.918124 0.784912 0.171460
H159  H     H_    0.910768 0.957944 0.831726 0.182402
H160  H     H_    0.850204 0.778789 0.917313 0.160210
H161  H     H_    0.778319 0.860309 0.884891 0.149035
C166  C     C_3   0.162146 0.876839 0.076991 -0.263937
C167  C     C_3   0.147958 0.898800 0.156582 -0.297955
C168  C     C_3   0.123597 0.794632 0.197375 -0.435005
H162  H     H_    0.103951 0.729715 0.159939 0.205716
H163  H     H_    0.164804 0.758499 0.232778 0.204774
H164  H     H_    0.079347 0.819817 0.229898 0.096082
H165  H     H_    0.196533 0.924516 0.183351 0.176924
H166  H     H_    0.106685 0.967459 0.162152 0.202864
H167  H     H_    0.131346 0.803728 0.055431 0.155449
H168  H     H_    0.216778 0.850229 0.069724 0.160353

loop_
_geom_bond_atom_site_label_1
_geom_bond_atom_site_label_2
_ccdc_geom_bond_type
C163  H161  S    
C78   H42   S    
C129  H64   S    
C131  H73   S    
Cr9   O17   S    
C123  H50   S    
C29   H31   S    
C30   H32   S    
Cr12  O20   S    
C31   H29   S    
C151  C152  S    
C75   C95   A    
C48   C120  S    
C158  H145  S    
C143  H102  S    
C87   C139  S    
C146  H112  S    
C137  C138  S    
C63   C98   S    
C69   C93   A    
C5    C6    S    
C20   C40   A    
C46   O30   A    
C71   C95   A    
C53   H37   S    
C22   C38   A    
C29   C33   S    
C161  C162  S    
C134  C135  S    
C9    C13   A    
C11   C15   A    
C89   O37   A    
C12   C16   A    
Cr2   O2    S    
Cr7   O19   S    
C73   C93   A    
Cr9   O13   S    
Cr10  O34   S    
C98   O46   A    
C137  H88   S    
C59   C60   S    
C113  H1    S    
C126  H56   S    
C41   C49   A    
C148  H122  S    
C109  C118  S    
C23   C27   A    
C108  O16   A    
Cr7   O51   S    
C51   C52   A    
C7    C119  S    
C157  H147  S    
C160  H153  S    
C161  H151  S    
C162  H150  S    
C62   C66   A    
C3    O27   A    
Cr1   O45   S    
C1    O25   A    
C149  H119  S    
Cr7   O27   S    
C66   C82   S    
C142  C143  S    
Cr4   O4    S    
C11   C27   A    
C68   C72   A    
C166  H168  S    
C48   O32   A    
C98   O50   A    
C163  C164  S    
C81   C121  S    
C165  H155  S    
C142  H103  S    
C13   C29   S    
C4    O28   A    
C100  O48   A    
C2    O22   A    
C57   H9    S    
C136  H90   S    
C168  H162  S    
C38   C90   S    
C21   C145  S    
C91   O3    A    
C18   C38   A    
C133  H82   S    
C138  H85   S    
C19   C35   S    
C76   C96   A    
C44   C55   A    
C66   C70   A    
C128  H66   S    
C92   O4    A    
C155  C156  S    
C26   H26   S    
C84   H48   S    
C89   O1    A    
C62   C99   S    
C72   C96   A    
C61   C65   A    
C76   H16   S    
C126  H58   S    
C5    C117  S    
C73   C77   A    
C127  H68   S    
C75   C79   A    
Cr12  O16   S    
C160  C161  S    
C60   H6    S    
Cr11  O19   S    
C147  H110  S    
C67   C83   S    
C156  H130  S    
C101  O5    A    
C111  C112  S    
Cr11  O39   S    
C155  H134  S    
C7    C8    S    
C104  O8    A    
C53   C54   A    
C125  C126  S    
C58   H8    S    
C46   C118  S    
C167  H165  S    
C133  H83   S    
C64   C68   A    
C86   H18   S    
C42   C53   A    
Cr1   O21   S    
C127  C128  S    
C152  H127  S    
Cr2   O18   S    
C158  C159  S    
C45   O29   A    
C152  H126  S    
C24   C154  S    
C28   H28   S    
C49   C57   S    
C41   C102  S    
Cr5   O17   S    
C43   C104  S    
C52   C60   S    
C61   C77   A    
C131  C132  S    
C144  H99   S    
C32   H30   S    
Cr2   O42   S    
C154  H136  S    
C121  C122  S    
Cr8   O52   S    
C103  O11   A    
C36   H140  S    
Cr9   O33   S    
Cr6   O30   S    
C130  H75   S    
C59   H11   S    
C150  H117  S    
C47   O31   A    
C1    C12   S    
C2    C11   S    
C108  O44   A    
C44   C103  S    
C168  H164  S    
C124  H61   S    
C125  H59   S    
C30   C34   S    
C134  H80   S    
C135  H79   S    
C10   C14   A    
Cr4   O20   S    
C116  C120  S    
C73   H13   S    
C84   C88   S    
C7    C116  S    
C139  C140  S    
Cr10  O38   S    
C159  H141  S    
C114  H2    S    
C21   C37   A    
C122  H53   S    
C132  H71   S    
C34   H138  S    
Cr12  O12   S    
C113  C117  S    
C151  H129  S    
C42   C50   A    
C156  H132  S    
C115  C119  S    
C22   C26   A    
C102  O10   A    
C159  H143  S    
C61   C100  S    
C139  H96   S    
C42   C101  S    
C112  C116  S    
C69   C85   S    
C45   C117  S    
C21   C25   A    
C143  C144  S    
C131  H74   S    
C62   C78   A    
C76   C80   A    
C149  C150  S    
Cr6   O6    S    
C91   O39   A    
C15   C31   S    
C16   C32   S    
C48   O36   A    
C13   C17   A    
C165  H157  S    
C140  H94   S    
C141  H91   S    
C57   C58   S    
C115  H3    S    
C164  H158  S    
C123  H51   S    
C85   C133  S    
C82   C124  S    
C96   C108  S    
Cr6   O50   S    
C121  H55   S    
C153  H125  S    
C100  O52   A    
C49   C50   A    
C136  C137  S    
C81   H45   S    
C105  O13   A    
C4    C9    S    
C81   C85   S    
C1    O21   A    
C83   C87   S    
C55   C56   A    
C77   H41   S    
C164  C165  S    
Cr3   O47   S    
C4    O24   A    
C135  H77   S    
C148  H121  S    
C9    C25   A    
C130  C131  S    
C15   C19   A    
C125  H60   S    
C12   C28   A    
C157  H146  S    
C70   C94   A    
C162  H149  S    
C140  C141  S    
C107  O43   A    
C163  H160  S    
C124  C125  S    
C36   C166  S    
C22   C148  S    
C105  O41   A    
C57   H7    S    
C29   H33   S    
C149  H120  S    
Cr10  O10   S    
C90   O38   A    
Cr11  O15   S    
C123  H49   S    
C160  H154  S    
Cr11  O35   S    
C166  H167  S    
C82   H46   S    
C129  H65   S    
C97   O45   A    
C64   C80   A    
C17   C33   S    
C110  C117  S    
Cr2   O22   S    
C158  H144  S    
Cr7   O7    S    
C143  H101  S    
Cr12  O36   S    
Cr8   O8    S    
C68   C84   S    
C24   C28   A    
Cr6   O18   S    
C141  H92   S    
C154  C155  S    
Cr4   O44   S    
C75   H15   S    
C82   C86   S    
Cr9   O9    S    
Cr2   O46   S    
Cr7   O31   S    
C2    O26   A    
C50   C58   S    
Cr8   O32   S    
C138  H84   S    
Cr9   O37   S    
Cr6   O26   S    
C65   C81   S    
C153  H123  S    
C128  H67   S    
C103  O7    A    
C47   O35   A    
C80   H44   S    
C6    H22   S    
C95   C107  S    
C71   C87   S    
C99   O51   A    
C137  H87   S    
C126  H57   S    
C97   O49   A    
C122  C123  S    
Cr3   O23   S    
C32   C36   S    
Cr4   O24   S    
C83   H47   S    
C55   H39   S    
C35   C163  S    
C109  H105  S    
Cr8   O20   S    
C74   H14   S    
C167  C168  S    
C112  C119  S    
C116  H4    S    
C146  H113  S    
C37   C89   S    
C136  H89   S    
C148  C149  S    
C109  C110  S    
C60   H12   S    
C43   C51   A    
C65   C69   A    
C67   C71   A    
C145  H115  S    
C101  O9    A    
C147  H109  S    
C20   C36   S    
C46   O34   A    
C7    H23   S    
C144  H98   S    
C74   C78   A    
C74   C94   A    
C154  H135  S    
C34   C160  S    
C27   H27   S    
Cr3   O3    S    
C142  H104  S    
Cr5   O49   S    
C127  H69   S    
C112  H108  S    
Cr1   O1    S    
C5    C114  S    
C150  H116  S    
C14   C18   A    
Cr5   O5    S    
C166  C167  S    
C63   C79   A    
C168  H163  S    
C128  C129  S    
C161  H152  S    
C83   C127  S    
C134  H81   S    
C135  H78   S    
C138  H86   S    
C5    H21   S    
C54   H38   S    
C59   H5    S    
C58   H10   S    
C106  O14   A    
C167  H166  S    
C8    C115  S    
C93   C105  S    
Cr3   O43   S    
C86   C136  S    
C84   C130  S    
Cr5   O25   S    
C23   C151  S    
C132  H70   S    
C16   C20   A    
C151  H128  S    
C10   C26   A    
C47   C119  S    
C147  H111  S    
Cr5   O29   S    
C156  H131  S    
C87   H19   S    
C159  H142  S    
C88   C142  S    
C14   C30   S    
C79   H43   S    
C72   C88   S    
C155  H133  S    
C141  H93   S    
C63   C67   A    
Cr1   O41   S    
C30   H34   S    
Cr10  O14   S    
C56   H40   S    
Cr11  O11   S    
C107  O15   A    
C111  C120  S    
C165  H156  S    
C6    C113  S    
C140  H95   S    
C146  C147  S    
C92   O40   A    
C3    O23   A    
C111  H107  S    
C164  H159  S    
C144  H100  S    
C90   O2    A    
C133  C134  S    
C17   C37   A    
C40   C92   S    
C18   C34   S    
C114  C118  S    
C19   C39   A    
C33   H137  S    
C145  H114  S    
C130  H76   S    
C153  H124  S    
Cr12  O40   S    
C35   H139  S    
C25   H25   S    
C150  H118  S    
C51   C59   S    
C129  H63   S    
C70   C86   S    
C8    C120  S    
Cr4   O48   S    
C110  C114  S    
C94   C106  S    
C124  H62   S    
C64   C97   S    
C39   C91   S    
Cr8   O28   S    
C31   H35   S    
C106  O42   A    
C88   H20   S    
Cr10  O18   S    
C109  C113  S    
C102  O6    A    
C157  C158  S    
C32   H36   S    
C3    C10   S    
C162  H148  S    
C44   C52   A    
C104  O12   A    
C99   O47   A    
C23   C39   A    
C24   C40   A    
C31   C35   S    
C122  H52   S    
Cr3   O19   S    
C145  C146  S    
C8    H24   S    
C132  H72   S    
C85   H17   S    
C41   C54   A    
Cr1   O17   S    
C43   C56   A    
C33   C157  S    
C45   O33   A    
C152  C153  S    
C110  H106  S    
C111  C115  S    
C139  H97   S    
C6    C118  S    
C121  H54   S    
