data_mof_unit_498.cif
_audit_creation_date              2013-03-05T15:50:25-0500
_audit_creation_method            fapswitch 2.2
_symmetry_space_group_name_H-M    P1
_symmetry_Int_Tables_number       1
_space_group_crystal_system       triclinic
_cell_length_a                    18.256844
_cell_length_b                    25.865821
_cell_length_c                    18.357468
_cell_angle_alpha                 89.662216
_cell_angle_beta                  89.965629
_cell_angle_gamma                 90.361962
_cell_volume                      8668.58975915

loop_
_atom_site_label
_atom_site_type_symbol
_atom_site_description
_atom_site_fract_x
_atom_site_fract_y
_atom_site_fract_z
_atom_type_partial_charge
Zn1   Zn    Zn3+2 0.249990 0.293780 0.913250 0.999824
Zn2   Zn    Zn3+2 0.249990 0.706220 0.086750 0.982909
Zn3   Zn    Zn3+2 0.249990 0.706220 0.913250 1.048286
Zn4   Zn    Zn3+2 0.249990 0.293780 0.086750 1.019191
Zn5   Zn    Zn3+2 0.749990 0.793780 0.413250 0.970791
Zn6   Zn    Zn3+2 0.749990 0.206220 0.586750 0.986920
Zn7   Zn    Zn3+2 0.749990 0.206220 0.413250 1.042939
Zn8   Zn    Zn3+2 0.749990 0.793780 0.586750 1.006880
Zn9   Zn    Zn3+2 0.336760 0.206240 0.000000 1.022900
Zn10  Zn    Zn3+2 0.336760 0.793760 0.000000 0.984597
Zn11  Zn    Zn3+2 0.836760 0.706240 0.500000 1.035803
Zn12  Zn    Zn3+2 0.836760 0.293760 0.500000 0.967981
Zn13  Zn    Zn3+2 0.163250 0.206230 0.000000 1.009529
Zn14  Zn    Zn3+2 0.163250 0.793770 0.000000 1.003426
Zn15  Zn    Zn3+2 0.663250 0.706230 0.500000 1.023775
Zn16  Zn    Zn3+2 0.663250 0.293770 0.500000 1.014489
O1    O     O_3   0.249990 0.250010 0.000000 -0.507159
O2    O     O_3   0.249990 0.749990 0.000000 -0.497341
O3    O     O_3   0.749990 0.750010 0.500000 -0.508896
O4    O     O_3   0.749990 0.249990 0.500000 -0.499909
O5    O     O_R   0.335430 0.280650 0.146160 -0.599112
O6    O     O_R   0.335430 0.719350 0.853840 -0.580557
O7    O     O_R   0.335430 0.719350 0.146160 -0.649544
O8    O     O_R   0.335430 0.280650 0.853840 -0.645384
O9    O     O_R   0.835430 0.780650 0.646160 -0.606461
O10   O     O_R   0.835430 0.219350 0.353840 -0.576584
O11   O     O_R   0.835430 0.219350 0.646160 -0.645178
O12   O     O_R   0.835430 0.780650 0.353840 -0.667329
O13   O     O_R   0.164550 0.280640 0.853840 -0.639536
O14   O     O_R   0.164550 0.719360 0.146160 -0.641392
O15   O     O_R   0.164550 0.719360 0.853840 -0.621579
O16   O     O_R   0.164550 0.280640 0.146160 -0.617324
O17   O     O_R   0.664550 0.780640 0.353840 -0.642392
O18   O     O_R   0.664550 0.219360 0.646160 -0.648101
O19   O     O_R   0.664550 0.219360 0.353840 -0.614311
O20   O     O_R   0.664550 0.780640 0.646160 -0.618962
O21   O     O_R   0.396160 0.219380 0.914560 -0.638939
O22   O     O_R   0.396160 0.780620 0.085440 -0.663085
O23   O     O_R   0.396160 0.780620 0.914560 -0.686934
O24   O     O_R   0.396160 0.219380 0.085440 -0.659759
O25   O     O_R   0.896160 0.719380 0.414560 -0.568524
O26   O     O_R   0.896160 0.280620 0.585440 -0.667889
O27   O     O_R   0.896160 0.280620 0.414560 -0.681764
O28   O     O_R   0.896160 0.719380 0.585440 -0.644901
O29   O     O_R   0.103840 0.219370 0.085450 -0.647465
O30   O     O_R   0.103840 0.780630 0.914550 -0.647817
O31   O     O_R   0.103840 0.780630 0.085450 -0.641563
O32   O     O_R   0.103840 0.219370 0.914550 -0.631000
O33   O     O_R   0.603840 0.719370 0.585450 -0.628222
O34   O     O_R   0.603840 0.280630 0.414550 -0.618951
O35   O     O_R   0.603840 0.280630 0.585450 -0.640703
O36   O     O_R   0.603840 0.719370 0.414550 -0.631468
O37   O     O_R   0.310730 0.133160 0.000000 -0.615337
O38   O     O_R   0.310730 0.866840 0.000000 -0.660321
O39   O     O_R   0.810730 0.633160 0.500000 -0.618679
O40   O     O_R   0.810730 0.366840 0.500000 -0.674291
O41   O     O_R   0.249970 0.366860 0.060720 -0.624820
O42   O     O_R   0.249970 0.633140 0.939280 -0.630253
O43   O     O_R   0.249970 0.633140 0.060720 -0.656458
O44   O     O_R   0.249970 0.366860 0.939280 -0.660783
O45   O     O_R   0.749970 0.866860 0.560720 -0.636782
O46   O     O_R   0.749970 0.133140 0.439280 -0.627714
O47   O     O_R   0.749970 0.133140 0.560720 -0.659094
O48   O     O_R   0.749970 0.866860 0.439280 -0.655459
O49   O     O_R   0.189290 0.133150 0.000000 -0.616478
O50   O     O_R   0.189290 0.866850 0.000000 -0.601659
O51   O     O_R   0.689290 0.633150 0.500000 -0.606451
O52   O     O_R   0.689290 0.366850 0.500000 -0.594735
C1    C     C_R   0.389065 0.249580 0.140468 0.716765
C2    C     C_R   0.390226 0.750054 0.860347 0.773344
C3    C     C_R   0.394338 0.746475 0.136001 0.838250
C4    C     C_R   0.393954 0.254052 0.863800 0.853376
C5    C     C_R   0.889194 0.749862 0.640307 0.783287
C6    C     C_R   0.890164 0.249914 0.360452 0.790416
C7    C     C_R   0.894278 0.246597 0.636139 0.848047
C8    C     C_R   0.889503 0.749681 0.359630 0.781223
C9    C     C_R   0.106188 0.252889 0.862953 0.813683
C10   C     C_R   0.109519 0.749354 0.139088 0.762733
C11   C     C_R   0.109814 0.750649 0.860073 0.827647
C12   C     C_R   0.110010 0.249920 0.139761 0.788034
C13   C     C_R   0.606236 0.752766 0.362847 0.809454
C14   C     C_R   0.606595 0.246847 0.637406 0.799260
C15   C     C_R   0.610674 0.250556 0.359575 0.784586
C16   C     C_R   0.610134 0.749785 0.639729 0.778722
C17   C     C_R   0.249994 0.109324 0.000591 0.921102
C18   C     C_R   0.250105 0.890732 0.997818 0.922883
C19   C     C_R   0.749070 0.609221 0.507383 0.860284
C20   C     C_R   0.750649 0.391022 0.500772 0.881868
C21   C     C_R   0.249031 0.391333 0.999935 0.803152
C22   C     C_R   0.248919 0.608648 0.000255 0.811591
C23   C     C_R   0.749490 0.891330 0.499672 0.771225
C24   C     C_R   0.749174 0.108635 0.500021 0.810869
C25   C     C_3   0.239223 0.469805 0.079075 -0.346865
C26   C     C_3   0.184172 0.529850 0.952986 -0.345059
C27   C     C_3   0.237377 0.529213 0.079148 -0.376900
C28   C     C_3   0.183401 0.469955 0.953836 -0.381396
C29   C     C_3   0.678174 0.969468 0.536070 -0.349073
C30   C     C_3   0.754799 0.030048 0.420365 -0.347593
C31   C     C_3   0.676238 0.029354 0.533090 -0.404892
C32   C     C_3   0.751260 0.970623 0.419745 -0.375694
H1    H     H_    0.285632 0.456466 0.113592 0.217824
H2    H     H_    0.190382 0.543855 0.895859 0.207680
H3    H     H_    0.281312 0.543773 0.115595 0.190792
H4    H     H_    0.187374 0.455562 0.896958 0.206602
H5    H     H_    0.676272 0.956348 0.593897 0.209802
H6    H     H_    0.807505 0.043215 0.395736 0.221381
H7    H     H_    0.668408 0.044679 0.589066 0.196844
H8    H     H_    0.800036 0.955546 0.390479 0.196281
H9    H     H_    0.187742 0.454460 0.103827 0.202704
H10   H     H_    0.130868 0.544459 0.973598 0.209627
H11   H     H_    0.184133 0.542433 0.101785 0.209292
H12   H     H_    0.130477 0.455669 0.976653 0.195805
H13   H     H_    0.628799 0.953478 0.508477 0.187880
H14   H     H_    0.709652 0.045491 0.385965 0.191783
H15   H     H_    0.628681 0.042182 0.499824 0.186513
H16   H     H_    0.701734 0.957792 0.389255 0.205734
H17   H     H_    0.368069 0.455656 0.999361 0.241523
H18   H     H_    0.330854 0.545679 0.914275 0.219629
H19   H     H_    0.367271 0.543580 0.005278 0.229441
H20   H     H_    0.326912 0.457856 0.910879 0.183813
H21   H     H_    0.819640 0.953519 0.595599 0.236273
H22   H     H_    0.865846 0.046974 0.526258 0.236677
H23   H     H_    0.804955 0.040096 0.602963 0.190466
H24   H     H_    0.866978 0.959621 0.509756 0.236321
C33   C     C_3   0.320541 0.470680 0.968136 -0.367375
C34   C     C_3   0.321225 0.530293 0.970235 -0.325498
C35   C     C_3   0.816487 0.970371 0.539790 -0.312830
C36   C     C_3   0.813102 0.029708 0.544958 -0.373666
C37   C     C_3   0.247999 0.449100 0.000188 0.121615
C38   C     C_3   0.247870 0.550848 0.000693 0.092406
C39   C     C_3   0.748707 0.949083 0.498873 0.099902
C40   C     C_3   0.748337 0.050819 0.499543 0.130741
C41   C     C_R   0.084019 0.339707 0.757803 -0.163418
C42   C     C_R   0.019714 0.659776 0.162828 -0.152864
C43   C     C_R   0.033187 0.656183 0.820960 -0.195797
C44   C     C_R   0.026429 0.340419 0.167398 -0.198994
C45   C     C_R   0.583280 0.839651 0.258085 -0.176106
C46   C     C_R   0.596096 0.167315 0.757337 -0.121278
C47   C     C_R   0.496606 0.176137 0.363268 -0.188268
C48   C     C_R   0.522605 0.838471 0.660945 -0.164786
C49   C     C_R   0.096833 0.371480 0.697504 0.483777
C50   C     C_R   0.974818 0.616497 0.168420 0.404868
C51   C     C_R   0.991283 0.611706 0.811176 0.506158
C52   C     C_R   0.985805 0.384894 0.177130 0.503945
C53   C     C_R   0.595209 0.871838 0.198020 0.496549
C54   C     C_R   0.609890 0.140848 0.822218 0.410888
C55   C     C_R   0.438817 0.141909 0.373075 0.493986
C56   C     C_R   0.484207 0.883896 0.670857 0.414302
C57   C     C_R   0.574834 0.854533 0.127675 -0.173249
C58   C     C_R   0.587188 0.162554 0.889107 -0.161442
C59   C     C_R   0.374704 0.147907 0.331349 -0.158923
C60   C     C_R   0.425586 0.884665 0.720614 -0.104778
C61   C     C_R   0.076394 0.354075 0.627240 -0.181350
C62   C     C_R   0.912036 0.618207 0.213192 -0.130166
C63   C     C_R   0.921991 0.615339 0.777507 -0.190879
C64   C     C_R   0.921451 0.382616 0.219341 -0.142448
C65   C     C_R   0.539797 0.805719 0.120823 -0.083799
C66   C     C_R   0.544712 0.208328 0.887798 -0.008044
C67   C     C_R   0.374003 0.184280 0.273003 -0.115471
C68   C     C_R   0.407397 0.838954 0.760009 -0.063833
C69   C     C_R   0.040267 0.305598 0.620609 -0.091473
C70   C     C_R   0.896691 0.663618 0.253511 -0.090405
C71   C     C_R   0.902153 0.662450 0.743001 -0.124966
C72   C     C_R   0.903197 0.336182 0.256711 -0.100652
C73   C     C_R   0.515553 0.778759 0.184446 0.066914
C74   C     C_R   0.518467 0.227786 0.819929 0.038988
C75   C     C_R   0.437617 0.216199 0.257931 0.050841
C76   C     C_R   0.454231 0.794290 0.757488 0.037567
C77   C     C_R   0.015652 0.278954 0.684453 0.062043
C78   C     C_R   0.948395 0.706025 0.253708 -0.029643
C79   C     C_R   0.952732 0.705343 0.741929 0.080440
C80   C     C_R   0.953177 0.293330 0.257076 0.074512
C81   C     C_R   0.048804 0.291390 0.751144 -0.042071
C82   C     C_R   0.007585 0.704757 0.204074 -0.008223
C83   C     C_R   0.013808 0.703939 0.788782 -0.035724
C84   C     C_R   0.011873 0.294544 0.207256 -0.043834
C85   C     C_R   0.548637 0.791149 0.251141 -0.045567
C86   C     C_R   0.554681 0.213103 0.755846 -0.045896
C87   C     C_R   0.496420 0.214191 0.307856 -0.016098
C88   C     C_R   0.510694 0.794170 0.705069 -0.036483
C89   C     C_R   0.459805 0.739981 0.183954 -0.041886
C90   C     C_R   0.458001 0.261821 0.814301 -0.039785
C91   C     C_R   0.443955 0.251218 0.197205 -0.067854
C92   C     C_R   0.447256 0.750230 0.805137 -0.093935
C93   C     C_R   0.959695 0.240302 0.684239 -0.039141
C94   C     C_R   0.944880 0.748948 0.302507 -0.085705
C95   C     C_R   0.942775 0.750638 0.698703 -0.074855
C96   C     C_R   0.946538 0.249564 0.304830 -0.086546
C97   C     C_R   0.457142 0.703084 0.241194 -0.016241
C98   C     C_R   0.450770 0.293565 0.751308 -0.013438
C99   C     C_R   0.501796 0.288910 0.192145 -0.080131
C100  C     C_R   0.495313 0.706576 0.799986 -0.097291
C101  C     C_R   0.957023 0.203534 0.741640 -0.024462
C102  C     C_R   0.994504 0.791751 0.296233 -0.009185
C103  C     C_R   0.976135 0.798582 0.718995 -0.102198
C104  C     C_R   0.993540 0.205550 0.298735 -0.105693
C105  C     C_R   0.990297 0.216150 0.808253 0.006443
C106  C     C_R   0.042538 0.793844 0.236600 0.026278
C107  C     C_R   0.022101 0.799065 0.780371 0.106383
C108  C     C_R   0.044026 0.204961 0.240239 0.118727
C109  C     C_R   0.490536 0.715634 0.307836 0.003596
C110  C     C_R   0.486790 0.278390 0.687260 0.001961
C111  C     C_R   0.556764 0.287950 0.246553 0.094876
C112  C     C_R   0.545980 0.705827 0.741754 0.113486
C113  C     C_R   0.044430 0.255889 0.809966 -0.131439
C114  C     C_R   0.052386 0.749151 0.194294 -0.067562
C115  C     C_R   0.049949 0.751008 0.806910 -0.086134
C116  C     C_R   0.053993 0.249638 0.196438 -0.045915
C117  C     C_R   0.544555 0.755494 0.309721 -0.131205
C118  C     C_R   0.545931 0.243256 0.691642 -0.122743
C119  C     C_R   0.554192 0.250476 0.302930 -0.057874
C120  C     C_R   0.553820 0.749590 0.695907 -0.055301
C121  C     C_R   0.421460 0.654204 0.234653 -0.012639
C122  C     C_R   0.408794 0.339913 0.749244 -0.007775
C123  C     C_R   0.505952 0.329254 0.137151 -0.127307
C124  C     C_R   0.494747 0.663141 0.849915 -0.129168
C125  C     C_R   0.922023 0.154475 0.735045 -0.024380
C126  C     C_R   0.998501 0.832731 0.347894 -0.042983
C127  C     C_R   0.961750 0.846948 0.683333 -0.076968
C128  C     C_R   0.991362 0.161335 0.347264 -0.128343
C129  C     C_R   0.399132 0.627194 0.297879 0.302521
C130  C     C_R   0.385603 0.360304 0.681659 0.301988
C131  C     C_R   0.563871 0.365548 0.137265 0.510742
C132  C     C_R   0.536764 0.618619 0.835214 0.515664
C133  C     C_R   0.900434 0.127009 0.798149 0.335136
C134  C     C_R   0.035458 0.879211 0.331857 0.347752
C135  C     C_R   0.967865 0.893424 0.722604 0.536439
C136  C     C_R   0.031310 0.116333 0.330631 0.529726
C137  C     C_R   0.921659 0.145487 0.867466 -0.076615
C138  C     C_R   0.078263 0.882656 0.268187 -0.070823
C139  C     C_R   0.007501 0.893736 0.788077 -0.128385
C140  C     C_R   0.080701 0.116641 0.271818 -0.088367
C141  C     C_R   0.420204 0.645854 0.367212 -0.083363
C142  C     C_R   0.407376 0.335897 0.616443 -0.080944
C143  C     C_R   0.619852 0.361731 0.189378 -0.140407
C144  C     C_R   0.587328 0.619091 0.777279 -0.108285
C145  C     C_R   0.966728 0.189508 0.871407 -0.147233
C146  C     C_R   0.083454 0.839620 0.223170 -0.201149
C147  C     C_R   0.038540 0.847651 0.812638 -0.319435
C148  C     C_R   0.086870 0.160513 0.228277 -0.246939
C149  C     C_R   0.466519 0.689258 0.371014 -0.146146
C150  C     C_R   0.460014 0.296779 0.620000 -0.142321
C151  C     C_R   0.614665 0.324289 0.243880 -0.271708
C152  C     C_R   0.591272 0.662241 0.731949 -0.244522
H25   H     H_    0.100818 0.353933 0.810593 0.180589
H26   H     H_    0.064567 0.657310 0.124568 0.166794
H27   H     H_    0.080609 0.651999 0.855328 0.177948
H28   H     H_    0.071142 0.343435 0.129069 0.167838
H29   H     H_    0.600051 0.853769 0.310939 0.180084
H30   H     H_    0.614122 0.149356 0.707456 0.189388
H31   H     H_    0.542777 0.171630 0.399660 0.145556
H32   H     H_    0.564037 0.839468 0.618874 0.161285
H33   H     H_    0.980918 0.203895 0.924709 0.219260
H34   H     H_    0.121906 0.842372 0.178601 0.190316
H35   H     H_    0.073126 0.851853 0.859122 0.225330
H36   H     H_    0.127827 0.159618 0.185742 0.144564
H37   H     H_    0.480825 0.703688 0.424256 0.220722
H38   H     H_    0.476666 0.278389 0.569915 0.211732
H39   H     H_    0.657583 0.323549 0.284342 0.183401
H40   H     H_    0.632384 0.661593 0.689524 0.144353
H41   H     H_    0.188279 0.049882 0.751046 0.175385
H42   H     H_    0.177680 0.957203 0.752101 0.172354
H43   H     H_    0.505182 0.538423 0.442069 0.177755
H44   H     H_    0.541207 0.465375 0.366126 0.177351
C153  C     C_R   0.293585 0.052411 0.125145 -0.171484
C154  C     C_R   0.294007 0.945169 0.123506 -0.075188
C155  C     C_R   0.861919 0.552486 0.591868 -0.185568
C156  C     C_R   0.857601 0.445227 0.593275 -0.152870
C157  C     C_R   0.315673 0.024956 0.186671 -0.085658
C158  C     C_R   0.315700 0.971388 0.185934 -0.068752
C159  C     C_R   0.916855 0.524820 0.626919 -0.126113
C160  C     C_R   0.913587 0.471342 0.629308 -0.054993
C161  C     C_R   0.272446 0.972385 0.059543 0.079000
C162  C     C_R   0.272207 0.026545 0.060429 0.058770
C163  C     C_R   0.805037 0.472282 0.550709 0.064540
C164  C     C_R   0.804987 0.526830 0.553573 0.102419
C165  C     C_R   0.250181 0.946456 0.995716 -0.116669
C166  C     C_R   0.250861 0.053837 0.997145 -0.123517
C167  C     C_R   0.752157 0.446993 0.505727 -0.143824
C168  C     C_R   0.744927 0.553585 0.522811 -0.196522
C169  C     C_R   0.229757 0.973577 0.930839 -0.027525
C170  C     C_R   0.232764 0.028472 0.930926 -0.034166
C171  C     C_R   0.694498 0.475311 0.473458 -0.004207
C172  C     C_R   0.682577 0.525253 0.498886 -0.138650
C173  C     C_R   0.208262 0.947717 0.865308 0.441861
C174  C     C_R   0.218974 0.056327 0.864461 0.468809
C175  C     C_R   0.646415 0.455355 0.419267 0.509971
C176  C     C_R   0.609620 0.544748 0.495672 0.514709
C177  C     C_R   0.193546 0.976353 0.802045 -0.187647
C178  C     C_R   0.199168 0.029446 0.801521 -0.209716
C179  C     C_R   0.579491 0.480312 0.405955 -0.323043
C180  C     C_R   0.559770 0.522850 0.447146 -0.165312
H45   H     H_    0.293797 0.094025 0.129024 0.093517
H46   H     H_    0.293897 0.903412 0.126592 0.110648
H47   H     H_    0.863502 0.593756 0.598889 0.147062
H48   H     H_    0.856096 0.403990 0.601563 0.160746
H49   H     H_    0.332765 0.045293 0.235101 0.115037
H50   H     H_    0.332172 0.950010 0.234016 0.132683
H51   H     H_    0.960057 0.545052 0.655600 0.145772
H52   H     H_    0.953964 0.449956 0.660192 0.171860
C181  C     C_2   0.413740 0.627921 0.163020 0.524603
H53   H     H_    0.376115 0.595759 0.156833 0.095886
O53   O     O_2   0.451544 0.640534 0.110904 -0.536767
C182  C     C_2   0.397591 0.372079 0.815299 0.515602
H54   H     H_    0.355087 0.401121 0.815998 0.104554
O54   O     O_2   0.436983 0.367546 0.868669 -0.544244
C183  C     C_2   0.449615 0.338252 0.080391 0.610854
H55   H     H_    0.438202 0.309480 0.039318 0.051511
O55   O     O_2   0.415809 0.378792 0.078913 -0.569983
C184  C     C_2   0.456805 0.663987 0.921477 0.580402
H56   H     H_    0.460229 0.697757 0.955612 0.080635
O56   O     O_2   0.421325 0.626874 0.943087 -0.554059
C185  C     C_2   0.914861 0.128252 0.663491 0.541164
H57   H     H_    0.877987 0.095818 0.657755 0.101787
O57   O     O_2   0.952321 0.141141 0.611256 -0.544372
C186  C     C_2   0.977556 0.824802 0.424078 0.469497
H58   H     H_    0.939659 0.851080 0.449608 0.095173
O58   O     O_2   0.004663 0.789230 0.458522 -0.575623
C187  C     C_2   0.950646 0.850025 0.603622 0.481408
H59   H     H_    0.957610 0.816092 0.571300 0.071081
O59   O     O_2   0.937958 0.890761 0.572624 -0.559909
C188  C     C_2   0.953033 0.161258 0.418749 0.575880
H60   H     H_    0.957380 0.194255 0.454355 0.079307
O60   O     O_2   0.916238 0.124210 0.438583 -0.550997
O61   O     O_3   0.859791 0.082182 0.789836 -0.772824
H61   H     H_    0.825406 0.078789 0.831257 0.338688
O62   O     O_3   0.031333 0.919002 0.381748 -0.748405
H62   H     H_    0.044584 0.952028 0.357762 0.339880
O63   O     O_3   0.936194 0.937689 0.694962 -0.687574
H63   H     H_    0.913250 0.956337 0.735957 0.364247
O64   O     O_3   0.022733 0.073145 0.374518 -0.667098
H64   H     H_    0.026453 0.042137 0.343443 0.342579
O65   O     O_3   0.357901 0.582643 0.289645 -0.799756
H65   H     H_    0.322694 0.579966 0.330451 0.333167
O66   O     O_3   0.342979 0.404318 0.681563 -0.790342
H66   H     H_    0.350373 0.423297 0.635174 0.333900
O67   O     O_3   0.563802 0.404574 0.085402 -0.656448
H67   H     H_    0.583403 0.436490 0.107920 0.368428
O68   O     O_3   0.529416 0.576046 0.880487 -0.659599
H68   H     H_    0.533181 0.544573 0.850267 0.364140
O69   O     O_3   0.201366 0.894625 0.863030 -0.810148
H69   H     H_    0.188290 0.883539 0.813061 0.341517
O70   O     O_3   0.227357 0.109470 0.860463 -0.770656
H70   H     H_    0.215059 0.122074 0.810840 0.331469
O71   O     O_3   0.667222 0.413780 0.377435 -0.804339
H71   H     H_    0.626478 0.404661 0.344208 0.322288
O72   O     O_3   0.582633 0.580109 0.544714 -0.705435
H72   H     H_    0.616333 0.581428 0.587020 0.314575
C189  C     C_2   0.903127 0.117027 0.935767 0.427928
H73   H     H_    0.882313 0.077725 0.934427 0.082027
O73   O     O_2   0.912042 0.137029 0.995243 -0.547765
C190  C     C_2   0.125010 0.928172 0.251940 0.360810
H74   H     H_    0.149149 0.950170 0.295851 0.144885
O74   O     O_2   0.137776 0.941029 0.189086 -0.572954
C191  C     C_2   0.022657 0.941638 0.830103 0.391431
H75   H     H_    0.041398 0.938663 0.886089 0.091431
O75   O     O_2   0.017377 0.984582 0.802727 -0.534086
C192  C     C_2   0.131589 0.073529 0.257405 0.353339
H76   H     H_    0.152619 0.067666 0.202779 0.091118
O76   O     O_2   0.153860 0.046081 0.306804 -0.559867
C193  C     C_2   0.399574 0.618492 0.435843 0.429227
H77   H     H_    0.375563 0.580103 0.435046 0.065895
O77   O     O_2   0.410350 0.638347 0.495121 -0.521533
C194  C     C_2   0.375618 0.350446 0.544709 0.421212
H78   H     H_    0.326375 0.373567 0.541483 0.074402
O78   O     O_2   0.403506 0.336016 0.487906 -0.542494
C195  C     C_2   0.685765 0.395393 0.187773 0.487052
H79   H     H_    0.715776 0.402548 0.237575 0.066559
O79   O     O_2   0.708958 0.413750 0.130781 -0.451815
C196  C     C_2   0.641579 0.577328 0.765217 0.438863
H80   H     H_    0.669182 0.574450 0.713001 0.013653
O80   O     O_2   0.658980 0.547409 0.813789 -0.487766
O81   O     O_3   0.133813 0.417352 0.709804 -0.738421
H81   H     H_    0.161047 0.427565 0.665386 0.378264
O82   O     O_3   0.993189 0.574519 0.125867 -0.759034
H82   H     H_    0.952664 0.549062 0.124796 0.357308
O83   O     O_3   0.018302 0.566071 0.839342 -0.736043
H83   H     H_    0.998590 0.537066 0.810145 0.359297
O84   O     O_3   0.009755 0.429254 0.142066 -0.739735
H84   H     H_    0.992467 0.459643 0.169561 0.351131
O85   O     O_3   0.631246 0.918038 0.210616 -0.745475
H85   H     H_    0.657393 0.929091 0.165953 0.368233
O86   O     O_3   0.647498 0.094791 0.817310 -0.763536
H86   H     H_    0.640845 0.074542 0.862718 0.337819
O87   O     O_3   0.447028 0.103709 0.425182 -0.743276
H87   H     H_    0.418168 0.073045 0.410133 0.356195
O88   O     O_3   0.505629 0.926200 0.629462 -0.784476
H88   H     H_    0.488135 0.958346 0.652355 0.335689
C197  C     C_2   0.588858 0.886934 0.061954 0.377808
H89   H     H_    0.608785 0.869675 0.012114 0.062290
O89   O     O_2   0.576048 0.933210 0.062253 -0.514710
C198  C     C_2   0.611189 0.138680 0.958797 0.377533
H90   H     H_    0.666206 0.123415 0.963863 0.093811
O90   O     O_2   0.568919 0.133789 0.009959 -0.538346
C199  C     C_2   0.307067 0.118162 0.350335 0.471113
H91   H     H_    0.267001 0.109510 0.308698 0.081004
O91   O     O_2   0.293921 0.104984 0.413001 -0.485896
C200  C     C_2   0.380808 0.932216 0.727475 0.367092
H92   H     H_    0.366878 0.954766 0.679466 0.098476
O92   O     O_2   0.361364 0.947549 0.787128 -0.576988
C201  C     C_2   0.091771 0.386013 0.561349 0.354794
H93   H     H_    0.111658 0.368280 0.511833 0.071291
O93   O     O_2   0.080357 0.432478 0.561177 -0.544371
C202  C     C_2   0.863293 0.572268 0.217929 0.534273
H94   H     H_    0.886353 0.535166 0.232448 0.050821
O94   O     O_2   0.798064 0.575381 0.204029 -0.485580
C203  C     C_2   0.867518 0.572337 0.785197 0.442778
H95   H     H_    0.824211 0.567285 0.745518 0.053436
O95   O     O_2   0.868733 0.543031 0.837572 -0.471721
C204  C     C_2   0.869730 0.426680 0.218718 0.374554
H96   H     H_    0.839672 0.436649 0.267588 0.050005
O96   O     O_2   0.858378 0.451067 0.162733 -0.476862
C205  C     C_2   0.539269 0.779352 0.049100 0.455299
H97   H     H_    0.532015 0.800936 0.998851 0.054552
O97   O     O_2   0.548817 0.732765 0.045851 -0.539346
C206  C     C_2   0.540525 0.241384 0.953914 0.444342
H98   H     H_    0.542080 0.225024 0.008262 0.121987
O98   O     O_2   0.538199 0.288373 0.947845 -0.545259
C207  C     C_2   0.303016 0.191969 0.235449 0.401813
H99   H     H_    0.294169 0.176729 0.181299 -0.006392
O99   O     O_2   0.253573 0.214971 0.265851 -0.534402
C208  C     C_2   0.334733 0.837435 0.795163 0.446771
H100  H     H_    0.325635 0.859351 0.844341 0.145785
O100  O     O_2   0.285175 0.811644 0.769022 -0.571196
C209  C     C_2   0.038605 0.279352 0.548730 0.467545
H101  H     H_    0.032476 0.301204 0.498562 0.051696
O101  O     O_2   0.045635 0.232542 0.545194 -0.539640
C210  C     C_2   0.824094 0.667182 0.289804 0.494120
H102  H     H_    0.788900 0.699886 0.278440 0.054890
O102  O     O_2   0.803787 0.634218 0.333352 -0.552808
C211  C     C_2   0.824007 0.669193 0.722267 0.426405
H103  H     H_    0.797235 0.642226 0.685846 -0.041386
O103  O     O_2   0.788135 0.704154 0.748503 -0.539227
C212  C     C_2   0.826734 0.330547 0.282693 0.378350
H104  H     H_    0.804314 0.357445 0.321832 0.048609
O104  O     O_2   0.787627 0.296484 0.257955 -0.551302

loop_
_geom_bond_atom_site_label_1
_geom_bond_atom_site_label_2
_geom_bond_distance
_ccdc_geom_bond_type
C188  O60   1.220497 D    
C106  C114  1.408877 A    
C209  H101  1.083956 S    
C49   O81   1.381229 S    
C179  C180  1.387995 A    
C83   C115  1.422423 A    
C129  O65   1.381526 S    
O67   H67   0.990406 S    
O65   H65   0.988601 S    
C53   O85   1.381254 S    
O26   C7    1.277422 A    
C146  H34   1.079481 S    
O30   C11   1.274161 A    
C30   H14   1.113337 S    
C176  O72   1.380116 S    
C23   C39   1.493978 S    
C159  C160  1.384608 A    
C21   C37   1.494476 S    
C18   C165  1.441612 S    
Zn12  O26   1.937018 S    
C122  C130  1.411566 A    
C104  C128  1.445874 A    
C54   C58   1.416049 A    
C105  C145  1.410802 A    
C164  C168  1.416294 A    
C32   H16   1.113553 S    
C167  C171  1.414544 A    
O63   H63   0.990431 S    
C158  H50   1.082571 S    
C29   H5    1.113023 S    
C205  O97   1.220442 D    
C132  O68   1.381495 S    
C150  H38   1.081982 S    
C99   C111  1.416523 A    
O11   C7    1.293632 A    
O34   C15   1.284329 A    
C184  O56   1.218925 D    
C32   H8    1.113553 S    
C70   C210  1.486692 S    
C29   C39   1.553786 S    
C198  O90   1.220717 D    
Zn1   O44   1.952468 S    
C25   H1    1.113625 S    
Zn2   O43   1.952464 S    
C63   C203  1.493381 S    
C73   C89   1.424536 A    
C181  H53   1.082022 S    
Zn5   O48   1.952468 S    
C61   C69   1.418999 A    
C186  H58   1.081506 S    
Zn6   O47   1.952464 S    
C124  C132  1.414924 A    
Zn7   O46   1.947001 S    
C43   H27   1.077202 S    
O16   C12   1.275903 A    
C124  C184  1.485124 S    
C191  H75   1.085859 S    
Zn16  O4    1.952634 S    
C190  H74   1.081856 S    
C112  C120  1.413066 A    
Zn1   O13   1.933352 S    
C100  C112  1.413527 A    
O86   H86   0.988850 S    
C26   C28   1.549195 S    
C143  C151  1.391133 A    
Zn4   O16   1.930033 S    
C134  O62   1.384135 S    
H24   C35   1.111508 S    
C28   H4    1.113070 S    
C147  H35   1.067505 S    
C197  H89   1.084063 S    
C137  C145  1.402844 A    
O88   H88   0.988600 S    
Zn6   O4    1.948482 S    
C78   C82   1.413745 A    
C145  H33   1.079993 S    
C130  C142  1.414694 A    
C42   C82   1.410483 A    
O82   H82   0.987612 S    
C30   H6    1.113466 S    
Zn10  O22   1.937018 S    
C206  H98   1.081883 S    
C84   C116  1.412013 A    
O25   C8    1.279804 A    
Zn13  O29   1.939459 S    
Zn10  O2    1.941294 S    
C11   C115  1.465729 S    
C196  O80   1.220743 D    
C48   C88   1.414988 A    
C67   C75   1.446324 A    
O29   C12   1.280399 A    
C19   C168  1.466513 S    
C68   C76   1.442553 A    
C20   C167  1.451222 S    
C35   C39   1.547910 S    
C47   C87   1.411327 A    
O66   H66   0.989193 S    
C131  O67   1.383488 S    
H19   C34   1.112778 S    
C33   C37   1.548416 S    
C26   H2    1.112964 S    
C82   C114  1.416089 A    
C155  H47   1.076205 S    
O37   C17   1.265334 A    
C90   C98   1.421001 A    
O48   C23   1.279893 A    
C41   C81   1.407821 A    
C42   H26   1.080935 S    
C28   C37   1.552319 S    
C135  C139  1.403352 A    
C187  O59   1.218130 D    
C156  H48   1.076721 S    
C189  H73   1.083444 S    
C73   C85   1.403422 A    
C3    C89   1.494572 S    
C207  H99   1.083349 S    
C152  H40   1.081586 S    
Zn16  O35   1.933808 S    
C103  C127  1.434346 A    
C201  H93   1.084025 S    
C211  O103  1.221002 D    
Zn15  O33   1.939459 S    
C101  C125  1.422978 A    
C44   H28   1.079547 S    
C26   C38   1.553471 S    
Zn7   O10   1.929992 S    
C142  C194  1.486526 S    
O33   C16   1.277966 A    
C57   C197  1.486097 S    
C24   C40   1.495528 S    
C128  C188  1.486800 S    
C185  O57   1.221035 D    
C154  C161  1.422526 A    
C110  C150  1.409421 A    
C173  C177  1.400819 A    
C194  H78   1.084351 S    
C86   C118  1.419134 A    
C50   O82   1.384177 S    
C88   C120  1.411183 A    
C130  O66   1.383040 S    
C156  C160  1.391374 A    
C58   C198  1.484863 S    
Zn5   O17   1.933352 S    
C27   C38   1.553356 S    
C69   C77   1.427029 A    
C182  O54   1.221247 D    
C25   C27   1.537246 S    
C111  C119  1.414351 A    
O61   H61   0.988907 S    
C121  C129  1.409846 A    
C109  C117  1.422837 A    
C27   H3    1.110256 S    
C103  C107  1.405372 A    
C148  H36   1.081254 S    
Zn8   O3    1.959362 S    
C133  O61   1.381899 S    
C202  H94   1.082364 S    
C29   C31   1.550268 S    
C65   C73   1.425545 A    
O38   C18   1.271611 A    
C98   C110  1.405951 A    
C63   C71   1.419182 A    
C134  C138  1.407688 A    
O5    C1    1.275310 A    
C59   C67   1.421560 A    
O32   C9    1.280825 A    
C52   C64   1.407760 A    
C55   C59   1.408139 A    
C51   C63   1.411719 A    
C211  H103  1.083531 S    
Zn15  O51   1.952051 S    
C153  H45   1.079136 S    
C177  C178  1.376460 A    
Zn11  O28   1.937858 S    
C50   C62   1.411109 A    
C192  O76   1.219943 D    
C204  H96   1.084612 S    
C97   C121  1.424355 A    
C142  C150  1.401119 A    
C2    C92   1.452561 S    
C12   C116  1.458426 S    
C1    C91   1.446411 S    
C208  H100  1.082125 S    
C200  O92   1.220214 D    
C72   C80   1.440101 A    
C210  H102  1.084856 S    
O8    C4    1.287019 A    
Zn9   O1    1.952932 S    
C61   C201  1.486359 S    
C129  C141  1.416487 A    
C173  O69   1.379128 S    
C94   C102  1.430211 A    
C56   C60   1.406928 A    
C46   H30   1.081284 S    
C107  C147  1.422860 A    
O50   C18   1.267649 A    
C121  C181  1.490237 S    
Zn1   O1    1.948483 S    
H42   C177  1.083379 S    
Zn13  O1    1.940996 S    
Zn2   O14   1.935760 S    
C135  O63   1.380071 S    
C49   C61   1.418090 A    
C102  C106  1.402823 A    
C46   C54   1.394137 A    
C59   C199  1.490817 S    
C126  C134  1.404510 A    
O9    C5    1.272783 A    
C203  O95   1.221127 D    
O39   C19   1.288039 A    
O36   C13   1.280136 A    
O13   C9    1.291204 A    
Zn1   O8    1.935714 S    
C108  C116  1.414656 A    
C13   C117  1.491879 S    
C30   C40   1.557258 S    
Zn2   O7    1.933309 S    
C77   C81   1.404191 A    
Zn3   O6    1.929992 S    
O18   C14   1.288099 A    
O31   C10   1.275355 A    
C174  O70   1.383651 S    
H17   C33   1.111188 S    
O6    C2    1.279470 A    
C80   C84   1.408491 A    
C41   H25   1.082456 S    
C14   C118  1.490909 S    
C75   C87   1.412973 A    
C205  H97   1.084031 S    
C105  C113  1.421906 A    
C163  C164  1.412223 A    
C48   H32   1.080795 S    
C44   C84   1.414033 A    
C212  H104  1.084880 S    
O84   H84   0.989880 S    
Zn14  O30   1.938111 S    
Zn15  O3    1.940996 S    
C193  O77   1.221547 D    
Zn11  O3    1.952932 S    
O41   C21   1.279831 A    
C31   C40   1.551116 S    
C176  C180  1.393945 A    
C45   C53   1.393902 A    
C207  O99   1.220798 D    
Zn16  O34   1.938111 S    
H21   C35   1.112686 S    
C31   H15   1.112980 S    
C136  O64   1.381496 S    
C67   C207  1.482268 S    
C125  C133  1.410041 A    
C34   C38   1.549342 S    
C128  C136  1.412349 A    
C186  O58   1.220888 D    
Zn8   O20   1.930033 S    
C153  C157  1.391865 A    
C106  C146  1.416295 A    
C99   C123  1.449267 A    
C89   C97   1.415922 A    
C74   C90   1.419727 A    
C92   C100  1.437824 A    
C74   C86   1.404576 A    
C71   C79   1.439007 A    
C160  H52   1.082963 S    
C6    C96   1.449458 S    
C188  H60   1.080640 S    
C157  C158  1.385750 A    
C62   C202  1.482139 S    
Zn8   O9    1.934512 S    
C209  O101  1.220453 D    
C125  C185  1.487328 S    
C25   C37   1.555520 S    
C157  H49   1.080860 S    
C112  C152  1.414600 A    
C62   C70   1.421310 A    
C196  H80   1.085834 S    
C122  C182  1.489367 S    
C181  O53   1.220983 D    
C169  C173  1.433635 A    
C155  C164  1.418653 A    
C174  C178  1.398566 A    
C171  C175  1.424110 A    
C183  H55   1.081959 S    
O7    C3    1.293195 A    
C172  C176  1.428322 A    
C107  C115  1.429010 A    
C144  C196  1.487617 S    
O72   H72   0.991699 S    
O19   C15   1.280849 A    
O69   H69   0.991533 S    
C26   H10   1.113068 S    
Zn9   O24   1.937858 S    
C161  C165  1.412203 A    
Zn6   O18   1.935760 S    
C123  C131  1.409592 A    
Zn10  O23   1.939209 S    
H44   C179  1.083014 S    
C206  O98   1.220852 D    
C64   C204  1.484685 S    
O64   H64   0.989627 S    
C108  C148  1.412789 A    
C55   O87   1.380090 S    
C42   C50   1.386530 A    
C140  C192  1.480846 S    
O68   H68   0.990539 S    
C70   C78   1.442615 A    
C71   C211  1.487877 S    
C78   C94   1.432426 A    
C138  C190  1.478594 S    
C195  O79   1.220822 D    
C151  H39   1.080163 S    
Zn15  O36   1.937271 S    
O15   C11   1.295325 A    
O42   C22   1.282999 A    
Zn4   O1    1.959362 S    
O17   C13   1.292018 A    
C30   C32   1.538130 S    
C33   C34   1.542617 S    
Zn9   O37   1.946185 S    
C139  C191  1.487997 S    
C35   C36   1.539937 S    
O12   C8    1.279309 A    
C136  C140  1.406222 A    
Zn11  O39   1.946185 S    
C66   C74   1.425320 A    
O87   H87   0.990194 S    
C165  C169  1.429537 A    
C184  H56   1.079527 S    
C58   C66   1.419546 A    
H20   C33   1.110311 S    
C198  H90   1.085413 S    
C45   H29   1.082419 S    
C199  H91   1.081670 S    
C16   C120  1.455754 S    
Zn5   O3    1.948483 S    
C68   C208  1.475103 S    
C31   H7    1.113021 S    
C41   C49   1.393561 A    
C154  H46   1.081211 S    
C132  C144  1.407834 A    
C159  H51   1.082447 S    
O62   H62   0.987405 S    
C44   C52   1.385067 A    
C76   C88   1.409792 A    
C155  C159  1.391570 A    
C185  H57   1.077999 S    
Zn7   O19   1.934556 S    
C194  O78   1.221575 D    
H22   C36   1.112165 S    
O28   C5    1.289480 A    
C133  C137  1.415364 A    
O40   C20   1.266226 A    
C4    C90   1.492295 S    
C187  H59   1.070550 S    
C22   C38   1.495015 S    
Zn3   O42   1.947001 S    
Zn7   O4    1.959363 S    
O21   C4    1.290287 A    
C197  O89   1.221100 D    
C17   C166  1.437169 S    
C81   C113  1.415222 A    
C127  C135  1.409221 A    
C57   C65   1.418073 A    
C53   C57   1.418320 A    
O70   H70   0.992068 S    
C60   C68   1.419833 A    
Zn2   O2    1.948482 S    
H43   C180  1.081148 S    
Zn14  O2    1.952634 S    
C163  C167  1.428692 A    
C195  H79   1.082405 S    
C104  C108  1.414968 A    
C48   C56   1.384843 A    
C10   C114  1.453853 S    
C32   C39   1.553274 S    
C109  C149  1.410345 A    
C102  C126  1.428010 A    
Zn13  O49   1.952051 S    
O44   C21   1.284220 A    
C28   H12   1.112994 S    
C47   C55   1.383980 A    
C149  H37   1.079913 S    
C202  O94   1.221096 D    
Zn12  O27   1.939209 S    
C9    C113  1.491646 S    
C190  O74   1.220838 D    
C111  C151  1.410721 A    
C87   C119  1.409937 A    
C72   C212  1.480978 S    
Zn3   O2    1.959363 S    
C139  C147  1.395636 A    
C85   C117  1.414156 A    
C65   C205  1.486385 S    
C75   C91   1.436368 A    
C76   C92   1.437501 A    
O46   C24   1.279379 A    
O47   C24   1.285231 A    
C203  H95   1.083181 S    
Zn16  O52   1.946225 S    
C204  O96   1.221212 D    
Zn8   O45   1.947006 S    
O27   C6    1.279751 A    
C189  O73   1.221513 D    
H41   C178  1.083164 S    
C208  O100  1.220896 D    
Zn12  O4    1.941294 S    
C7    C93   1.494837 S    
C126  C186  1.462607 S    
C110  C118  1.417678 A    
C36   C40   1.547665 S    
C201  O93   1.221063 D    
C52   O84   1.380839 S    
C210  O102  1.221130 D    
O24   C1    1.287577 A    
C56   O88   1.382813 S    
C154  C158  1.391558 A    
C97   C109  1.405991 A    
C169  C170  1.420639 A    
C79   C83   1.409164 A    
C183  O55   1.220284 D    
O43   C22   1.281378 A    
C43   C83   1.413186 A    
Zn4   O41   1.947006 S    
Zn3   O15   1.934556 S    
Zn5   O12   1.935714 S    
Zn6   O11   1.933309 S    
Zn9   O21   1.933558 S    
C161  C162  1.401123 A    
Zn14  O50   1.946225 S    
C98   C122  1.427235 A    
O35   C14   1.290962 A    
C96   C104  1.434805 A    
O83   H83   0.990571 S    
Zn12  O40   1.952008 S    
C131  C143  1.403874 A    
C175  O71   1.380222 S    
C141  C149  1.403307 A    
C182  H54   1.083557 S    
C170  C174  1.436468 A    
O52   C20   1.279565 A    
C175  C179  1.406307 A    
C138  C146  1.393953 A    
C29   H13   1.112899 S    
C46   C86   1.409279 A    
C171  C172  1.394458 A    
C8    C94   1.456481 S    
C137  C189  1.487934 S    
O22   C3    1.277715 A    
C95   C103  1.429605 A    
C162  C166  1.412162 A    
C141  C193  1.488491 S    
C47   H31   1.082340 S    
C168  C172  1.421095 A    
C93   C101  1.415887 A    
C91   C99   1.435307 A    
Zn13  O32   1.937271 S    
C212  O104  1.220425 D    
O49   C17   1.271512 A    
Zn14  O31   1.933808 S    
C54   O86   1.382127 S    
C51   O83   1.380007 S    
C193  H77   1.083054 S    
O51   C19   1.265035 A    
C79   C95   1.423802 A    
C69   C209  1.487710 S    
C144  C152  1.389716 A    
O20   C16   1.276364 A    
C77   C93   1.424920 A    
C27   H11   1.113513 S    
O81   H81   0.988515 S    
C66   C206  1.490963 S    
Zn4   O5    1.934512 S    
C199  O91   1.221156 D    
H23   C36   1.109877 S    
O85   H85   0.988373 S    
C143  C195  1.481040 S    
C80   C96   1.432192 A    
C101  C105  1.404983 A    
C156  C163  1.422728 A    
C43   C51   1.390156 A    
O10   C6    1.276528 A    
O23   C2    1.278895 A    
Zn11  O25   1.933558 S    
C191  O75   1.220882 D    
C192  H76   1.085393 S    
Zn10  O38   1.952008 S    
C5    C95   1.451820 S    
C123  C183  1.482973 S    
O14   C10   1.279451 A    
C153  C162  1.420561 A    
C45   C85   1.407887 A    
C64   C72   1.417446 A    
C166  C170  1.422825 A    
C25   H9    1.113577 S    
C140  C148  1.388119 A    
C200  H92   1.085211 S    
H18   C34   1.112966 S    
O71   H71   0.990468 S    
C127  C187  1.479143 S    
C100  C124  1.445732 A    
C15   C119  1.464888 S    
O45   C23   1.283867 A    
C60   C200  1.487067 S    
