data_mof_unit_2141.cif
_audit_creation_date              2012-12-11T15:19:58-0500
_audit_creation_method            fapswitch 2.2
_symmetry_space_group_name_H-M    P1
_symmetry_Int_Tables_number       1
_space_group_crystal_system       triclinic
_cell_length_a                    16.631205
_cell_length_b                    16.63515
_cell_length_c                    42.847127
_cell_angle_alpha                 89.915153
_cell_angle_beta                  90.238829
_cell_angle_gamma                 119.893887
_cell_volume                      10276.9036348

loop_
_atom_site_label
_atom_site_type_symbol
_atom_type_description
_atom_site_fract_x
_atom_site_fract_y
_atom_site_fract_z
_atom_type_partial_charge
Br1   Br    Br    0.086825 0.373228 0.167886 -0.456658
Br2   Br    Br    0.364528 0.067256 0.827544 -0.491402
Br3   Br    Br    0.948297 0.306644 0.675772 -0.518159
Br4   Br    Br    0.599505 0.624744 0.810218 -0.436070
Br5   Br    Br    0.306792 0.948421 0.324254 -0.515117
Br6   Br    Br    0.579575 0.519752 0.205128 -0.426466
Br7   Br    Br    0.135683 0.400541 0.339573 -0.480316
Br8   Br    Br    0.317194 0.957679 0.175778 -0.466938
Br9   Br    Br    0.604543 0.735036 0.337585 -0.510925
Br10  Br    Br    0.400630 0.135652 0.660168 -0.481139
Br11  Br    Br    0.944856 0.307255 0.827055 -0.484208
Br12  Br    Br    0.734119 0.604436 0.662575 -0.511351
C1    C     C_R   0.584107 0.425975 0.794684 0.569843
C2    C     C_R   0.426335 0.583431 0.205743 0.574442
C3    C     C_R   0.072401 0.621740 0.435861 0.434895
C4    C     C_R   0.575122 0.024500 0.065717 0.435712
C5    C     C_R   0.379708 0.402387 0.434425 0.434947
C6    C     C_R   0.621531 0.071084 0.564567 0.435090
C7    C     C_R   0.028312 0.584854 0.934415 0.430331
C8    C     C_R   0.400547 0.380204 0.565530 0.435150
C9    C     C_R   0.609250 0.073733 0.935474 0.426191
C10   C     C_R   0.030244 0.580738 0.566329 0.425872
C11   C     C_R   0.433848 0.413056 0.937165 0.436707
C12   C     C_R   0.920425 0.481210 0.071373 0.406995
C13   C     C_R   0.417056 0.844125 0.294496 0.570774
C14   C     C_R   0.440751 0.884787 0.440599 0.405228
C15   C     C_R   0.571394 0.537828 0.070623 0.406468
C16   C     C_R   0.927336 0.480289 0.428733 0.410138
C17   C     C_R   0.436661 0.876822 0.058306 0.401756
C18   C     C_R   0.539840 0.521171 0.435229 0.401434
C19   C     C_R   0.480040 0.925911 0.571169 0.410148
C20   C     C_R   0.877570 0.449784 0.940644 0.400660
C21   C     C_R   0.518519 0.540623 0.565314 0.401326
C22   C     C_R   0.476785 0.921777 0.928012 0.406343
C23   C     C_R   0.884635 0.439781 0.559177 0.405202
C24   C     C_R   0.156860 0.573517 0.205292 0.550526
C25   C     C_R   0.594962 0.530160 0.939692 0.404103
C26   C     C_R   0.906052 0.475597 0.038855 0.032556
C27   C     C_R   0.452331 0.891436 0.473188 0.029167
C28   C     C_R   0.580410 0.533030 0.038179 0.029208
C29   C     C_R   0.912478 0.472448 0.461171 0.036810
C30   C     C_R   0.447688 0.885450 0.025789 0.030139
C31   C     C_R   0.536934 0.528094 0.467683 0.039981
C32   C     C_R   0.472581 0.911382 0.538694 0.036889
C33   C     C_R   0.884891 0.459644 0.973274 0.032365
C34   C     C_R   0.525682 0.538384 0.532857 0.039785
C35   C     C_R   0.035154 0.474494 0.127538 -0.057661
C36   C     C_R   0.468108 0.907673 0.960455 0.031291
C37   C     C_R   0.891726 0.451589 0.526612 0.029140
C38   C     C_R   0.591030 0.531819 0.972430 0.034302
C39   C     C_R   0.976550 0.540976 0.019353 -0.036548
C40   C     C_R   0.529325 0.970009 0.486177 -0.032493
C41   C     C_R   0.502578 0.469914 0.020515 -0.036731
C42   C     C_R   0.980550 0.539437 0.481101 -0.032272
C43   C     C_R   0.522370 0.966521 0.013224 -0.033211
C44   C     C_R   0.459336 0.460159 0.483693 -0.029398
C45   C     C_R   0.539712 0.979744 0.519014 -0.032420
C46   C     C_R   0.423178 0.951614 0.373385 -0.039334
C47   C     C_R   0.966147 0.532816 0.986486 -0.034913
C48   C     C_R   0.458284 0.460782 0.516554 -0.029448
C49   C     C_R   0.532060 0.977990 0.980475 -0.038539
C50   C     C_R   0.970389 0.528771 0.513906 -0.032282
C51   C     C_R   0.507449 0.470370 0.987563 -0.036529
C52   C     C_R   0.126217 0.680296 0.012912 -0.144974
C53   C     C_R   0.673415 0.115784 0.479819 -0.133298
C54   C     C_R   0.342029 0.345530 0.017771 -0.126350
C55   C     C_R   0.125309 0.683922 0.488503 -0.133117
C56   C     C_R   0.660942 0.116971 0.020320 -0.133503
C57   C     C_R   0.520625 0.499724 0.141272 -0.022574
C58   C     C_R   0.310925 0.318025 0.483580 -0.124686
C59   C     C_R   0.684143 0.124725 0.512147 -0.132707
C60   C     C_R   0.116690 0.671654 0.980559 -0.140650
C61   C     C_R   0.316798 0.311817 0.516087 -0.124650
C62   C     C_R   0.669812 0.128612 0.988070 -0.145752
C63   C     C_R   0.115929 0.672949 0.520797 -0.132887
C64   C     C_R   0.346052 0.347820 0.985291 -0.127013
C65   C     C_R   0.823752 0.405302 0.025335 -0.128818
C66   C     C_R   0.388937 0.821299 0.493067 -0.136140
C67   C     C_R   0.663677 0.593091 0.022827 -0.136621
C68   C     C_R   0.056432 0.485196 0.375552 -0.033244
C69   C     C_R   0.832433 0.398099 0.474193 -0.126827
C70   C     C_R   0.386020 0.814950 0.005581 -0.151557
C71   C     C_R   0.608177 0.602380 0.484364 -0.134241
C72   C     C_R   0.398452 0.831420 0.525389 -0.127218
C73   C     C_R   0.813147 0.397841 0.992985 -0.137337
C74   C     C_R   0.599830 0.610212 0.516464 -0.134562
C75   C     C_R   0.396168 0.825694 0.973352 -0.136255
C76   C     C_R   0.821927 0.388266 0.506478 -0.136411
C77   C     C_R   0.669046 0.592083 0.990392 -0.132299
C78   C     C_R   0.924864 0.642644 0.881171 0.055024
C79   C     C_R   0.424721 0.948968 0.126005 -0.032335
C80   C     C_R   0.874854 0.642138 0.907602 -0.043316
C81   C     C_R   0.883152 0.724955 0.918766 -0.078146
C82   C     C_R   0.940042 0.808484 0.903432 -0.100436
C83   C     C_R   0.989004 0.809520 0.876906 -0.086274
C84   C     C_R   0.981517 0.727084 0.865789 -0.059339
C85   C     C_R   0.686161 0.009380 0.629426 0.053608
C86   C     C_R   0.657934 0.920349 0.617616 -0.071228
C87   C     C_R   0.723899 0.894840 0.610012 -0.096136
C88   C     C_R   0.818327 0.957885 0.614134 -0.096059
C89   C     C_R   0.846982 0.046552 0.625792 -0.090807
C90   C     C_R   0.501918 0.584319 0.377358 -0.045684
C91   C     C_R   0.781253 0.072228 0.633435 -0.052188
C92   C     C_R   0.497648 0.295407 0.900487 0.046167
C93   C     C_R   0.560295 0.307622 0.924602 -0.059404
C94   C     C_R   0.538431 0.236999 0.946342 -0.069250
C95   C     C_R   0.454394 0.153692 0.944067 -0.099815
C96   C     C_R   0.392148 0.140833 0.920003 -0.112720
C97   C     C_R   0.413837 0.211154 0.898142 -0.045198
C98   C     C_R   0.908097 0.623822 0.614845 0.082066
C99   C     C_R   0.963831 0.716080 0.624644 -0.032188
C100  C     C_R   0.954291 0.786877 0.610601 -0.078027
C101  C     C_R   0.484593 0.055143 0.624448 -0.033562
C102  C     C_R   0.888881 0.765962 0.586847 -0.085005
C103  C     C_R   0.832469 0.674211 0.577230 -0.097078
C104  C     C_R   0.841741 0.603300 0.591198 -0.068190
C105  C     C_R   0.700481 0.035563 0.875813 0.057799
C106  C     C_R   0.791332 0.110945 0.877158 -0.036117
C107  C     C_R   0.863706 0.098852 0.888325 -0.079817
C108  C     C_R   0.845841 0.011404 0.898243 -0.098608
C109  C     C_R   0.755508 0.936011 0.897112 -0.104339
C110  C     C_R   0.682938 0.947941 0.886003 -0.071566
C111  C     C_R   0.321406 0.371576 0.633773 0.079232
C112  C     C_R   0.843967 0.416901 0.705503 0.569121
C113  C     C_R   0.945323 0.425582 0.874904 -0.033970
C114  C     C_R   0.291005 0.428509 0.619856 -0.063465
C115  C     C_R   0.196389 0.395342 0.615017 -0.094400
C116  C     C_R   0.131273 0.305375 0.624118 -0.074796
C117  C     C_R   0.160548 0.248687 0.638349 -0.080111
C118  C     C_R   0.255086 0.281542 0.643271 -0.045347
C119  C     C_R   0.625731 0.910260 0.385060 0.082524
C120  C     C_R   0.717771 0.966335 0.375231 -0.032527
C121  C     C_R   0.789163 0.957570 0.389236 -0.078097
C122  C     C_R   0.769065 0.892588 0.412981 -0.084749
C123  C     C_R   0.677536 0.835816 0.422622 -0.096066
C124  C     C_R   0.582744 0.501937 0.622793 -0.045794
C125  C     C_R   0.606032 0.844321 0.408695 -0.067575
C126  C     C_R   0.022060 0.695588 0.127035 0.055922
C127  C     C_R   0.091040 0.789347 0.129286 -0.048574
C128  C     C_R   0.072414 0.858954 0.119853 -0.081133
C129  C     C_R   0.984837 0.835577 0.108156 -0.104699
C130  C     C_R   0.915758 0.742526 0.105848 -0.108676
C131  C     C_R   0.934127 0.672737 0.115253 -0.067488
C132  C     C_R   0.372791 0.322923 0.366346 0.080095
C133  C     C_R   0.430007 0.293235 0.380526 -0.062481
C134  C     C_R   0.397398 0.198800 0.385367 -0.094363
C135  C     C_R   0.469992 0.029094 0.870676 -0.040572
C136  C     C_R   0.307711 0.133155 0.376007 -0.074817
C137  C     C_R   0.250744 0.161719 0.361522 -0.079126
C138  C     C_R   0.283042 0.256074 0.356597 -0.044289
C139  C     C_R   0.613826 0.887243 0.113613 0.053154
C140  C     C_R   0.592221 0.825113 0.088645 -0.089231
C141  C     C_R   0.660781 0.811073 0.075275 -0.088804
C142  C     C_R   0.751343 0.858302 0.086929 -0.078143
C143  C     C_R   0.773368 0.919460 0.112017 -0.093476
C144  C     C_R   0.704917 0.933806 0.125386 -0.063380
C145  C     C_R   0.011840 0.687502 0.371093 0.053988
C146  C     C_R   0.950967 0.422398 0.626636 -0.039046
C147  C     C_R   0.922877 0.659619 0.382792 -0.071042
C148  C     C_R   0.897859 0.725852 0.390565 -0.096186
C149  C     C_R   0.961335 0.820200 0.386725 -0.096110
C150  C     C_R   0.049944 0.848505 0.375183 -0.090695
C151  C     C_R   0.075132 0.782508 0.367375 -0.051651
C152  C     C_R   0.352644 0.544194 0.093344 0.059864
C153  C     C_R   0.399994 0.595958 0.066867 -0.081379
C154  C     C_R   0.351049 0.601337 0.041151 -0.092746
C155  C     C_R   0.254335 0.556582 0.041777 -0.065044
C156  C     C_R   0.206529 0.506229 0.068135 -0.068213
C157  C     C_R   0.550432 0.529992 0.868795 -0.029656
C158  C     C_R   0.255317 0.500186 0.093865 -0.055991
C159  C     C_R   0.073064 0.477981 0.156985 0.126864
C160  C     C_R   0.402336 0.929080 0.341829 0.142705
C161  C     C_R   0.506929 0.524631 0.171087 0.131510
C162  C     C_R   0.094593 0.488698 0.346305 0.147012
C163  C     C_R   0.404971 0.928373 0.157635 0.138603
C164  C     C_R   0.573479 0.156557 0.794547 0.551646
C165  C     C_R   0.505952 0.612463 0.346767 0.135490
C166  C     C_R   0.488247 0.093779 0.653658 0.146873
C167  C     C_R   0.924472 0.403176 0.843357 0.134614
C168  C     C_R   0.611406 0.505754 0.653339 0.135913
C169  C     C_R   0.474323 0.065998 0.841085 0.131179
C170  C     C_R   0.928573 0.401805 0.658175 0.142770
C171  C     C_R   0.565963 0.520832 0.837254 0.136189
C172  C     C_R   0.081951 0.626384 0.166090 -0.161409
C173  C     C_R   0.530370 0.898866 0.338545 -0.160589
C174  C     C_R   0.388395 0.554507 0.150109 -0.157713
C175  C     C_R   0.583321 0.426878 0.705456 0.570295
C176  C     C_R   0.077034 0.621398 0.333202 -0.162688
C177  C     C_R   0.520946 0.880260 0.159789 -0.178137
C178  C     C_R   0.396272 0.454664 0.332116 -0.141907
C179  C     C_R   0.620445 0.075539 0.667095 -0.162616
C180  C     C_R   0.894977 0.531454 0.838014 -0.173993
C181  C     C_R   0.453879 0.395555 0.667893 -0.144887
C182  C     C_R   0.629531 0.088443 0.835083 -0.162849
C183  C     C_R   0.897680 0.529387 0.661392 -0.161073
C184  C     C_R   0.529171 0.362217 0.847122 -0.164634
C185  C     C_R   0.041868 0.621559 0.136755 0.031072
C186  C     C_R   0.843161 0.416665 0.794687 0.562086
C187  C     C_R   0.550109 0.919544 0.370334 0.020748
C188  C     C_R   0.404207 0.533383 0.119971 0.016758
C189  C     C_R   0.039048 0.617908 0.362754 0.025653
C190  C     C_R   0.541239 0.901599 0.128193 0.015875
C191  C     C_R   0.406898 0.423443 0.361812 0.035021
C192  C     C_R   0.616838 0.037106 0.637583 0.025683
C193  C     C_R   0.919497 0.556320 0.869308 0.014238
C194  C     C_R   0.422114 0.406242 0.638281 0.035072
C195  C     C_R   0.623592 0.048739 0.864464 0.026172
C196  C     C_R   0.918120 0.548799 0.629618 0.020541
C197  C     C_R   0.573918 0.158308 0.705027 0.564192
C198  C     C_R   0.517142 0.372361 0.878823 0.010813
C199  C     C_R   0.022965 0.547093 0.116683 0.194159
C200  C     C_R   0.493690 0.942894 0.388116 0.200409
C201  C     C_R   0.470202 0.504090 0.115611 0.193551
C202  C     C_R   0.030812 0.550211 0.384341 0.196027
C203  C     C_R   0.489845 0.932835 0.110939 0.208826
C204  C     C_R   0.455001 0.490109 0.385751 0.182952
C205  C     C_R   0.549387 0.029065 0.615840 0.195900
C206  C     C_R   0.939303 0.499095 0.888371 0.207677
C207  C     C_R   0.488397 0.454876 0.614412 0.183186
C208  C     C_R   0.427046 0.583469 0.294530 0.575562
C209  C     C_R   0.545268 0.024185 0.883136 0.196404
C210  C     C_R   0.941904 0.492584 0.611881 0.200412
C211  C     C_R   0.527339 0.456902 0.889786 0.197349
C212  C     C_R   0.891724 0.451968 0.825099 0.011903
C213  C     C_R   0.558141 0.106150 0.675357 0.010109
C214  C     C_R   0.555922 0.436497 0.826261 0.013942
C215  C     C_R   0.894588 0.451394 0.675392 0.011067
C216  C     C_R   0.557096 0.101084 0.823465 0.005417
C217  C     C_R   0.548904 0.444351 0.675606 0.020331
C218  C     C_R   0.451941 0.895194 0.324587 0.011396
C219  C     C_R   0.416327 0.842679 0.205286 0.563936
C220  C     C_R   0.101367 0.557067 0.176203 0.006261
C221  C     C_R   0.444793 0.549562 0.324418 0.022365
C222  C     C_R   0.449657 0.888421 0.174526 0.010724
C223  C     C_R   0.106974 0.558694 0.324731 0.010132
C224  C     C_R   0.440017 0.551482 0.175531 0.023800
C225  C     C_R   0.058099 0.613636 0.032554 0.024295
C226  C     C_R   0.595310 0.039469 0.466500 0.033752
C227  C     C_R   0.419461 0.407226 0.035649 0.031108
C228  C     C_R   0.059536 0.616200 0.468377 0.032846
C229  C     C_R   0.586736 0.036628 0.033243 0.032859
C230  C     C_R   0.158485 0.574076 0.294987 0.562787
C231  C     C_R   0.383025 0.391823 0.467016 0.033235
C232  C     C_R   0.616306 0.058623 0.532022 0.032970
C233  C     C_R   0.037645 0.597060 0.966994 0.029767
C234  C     C_R   0.390138 0.383971 0.532940 0.033172
C235  C     C_R   0.604820 0.060340 0.967905 0.023748
C236  C     C_R   0.039497 0.594690 0.533836 0.033819
C237  C     C_R   0.428301 0.410294 0.969879 0.031147
C238  C     C_R   0.070860 0.616456 0.065052 0.419434
C239  C     C_R   0.581547 0.030688 0.433973 0.425821
C240  C     C_R   0.414364 0.411196 0.068250 0.440765
Cr1   Cr    Cr6+3 0.530290 0.262330 0.750000 1.106967
Cr2   Cr    Cr6+3 0.732040 0.469710 0.750000 1.086256
Cr3   Cr    Cr6+3 0.737670 0.267960 0.750000 1.095143
Cr4   Cr    Cr6+3 0.262330 0.530290 0.250000 1.116879
Cr5   Cr    Cr6+3 0.469710 0.732040 0.250000 1.080644
Cr6   Cr    Cr6+3 0.267960 0.737670 0.250000 1.092776
H1    H     H_    0.748868 0.342904 0.983430 0.144373
H2    H     H_    0.329781 0.751032 0.014639 0.150095
H3    H     H_    0.829177 0.704042 0.399472 0.158067
H4    H     H_    0.941962 0.871432 0.392658 0.110737
H5    H     H_    0.099180 0.921591 0.372323 0.121471
H6    H     H_    0.144285 0.805304 0.358821 0.169656
H7    H     H_    0.474763 0.631028 0.065883 0.106873
H8    H     H_    0.388266 0.639793 0.020671 0.110570
H9    H     H_    0.216440 0.560596 0.021805 0.115511
H10   H     H_    0.131578 0.470988 0.068432 0.112415
H11   H     H_    0.217233 0.459354 0.113833 0.156224
H12   H     H_    0.778083 0.346677 0.459458 0.168717
H13   H     H_    0.724649 0.641949 0.035826 0.148047
H14   H     H_    0.874420 0.572741 0.824109 0.151603
H15   H     H_    0.673680 0.083306 0.683487 0.149628
H16   H     H_    0.523587 0.297784 0.839121 0.157276
H17   H     H_    0.878717 0.572222 0.674817 0.186668
H18   H     H_    0.692076 0.111056 0.821539 0.161396
H19   H     H_    0.404353 0.353382 0.685601 0.140660
H20   H     H_    0.573281 0.880132 0.325078 0.186247
H21   H     H_    0.346949 0.776849 0.539926 0.168063
H22   H     H_    0.099354 0.685667 0.180890 0.152203
H23   H     H_    0.354366 0.404843 0.314348 0.143222
H24   H     H_    0.557726 0.851673 0.172315 0.150857
H25   H     H_    0.084902 0.674792 0.316935 0.150040
H26   H     H_    0.338480 0.577577 0.153619 0.125534
H27   H     H_    0.171666 0.723331 0.966203 0.163115
H28   H     H_    0.745240 0.184199 0.521590 0.167139
H29   H     H_    0.284577 0.300171 0.972272 0.163152
H30   H     H_    0.169022 0.725756 0.535524 0.164569
H31   H     H_    0.727643 0.191426 0.978921 0.165917
H32   H     H_    0.734330 0.639387 0.979429 0.139946
H33   H     H_    0.262498 0.252149 0.528069 0.159529
H34   H     H_    0.726272 0.169133 0.465288 0.163773
H35   H     H_    0.187540 0.738912 0.022587 0.172784
H36   H     H_    0.251631 0.263590 0.471368 0.159448
H37   H     H_    0.711945 0.171492 0.035101 0.166618
H38   H     H_    0.184832 0.745165 0.479288 0.165964
H39   H     H_    0.277241 0.296956 0.028826 0.164525
H40   H     H_    0.018901 0.416490 0.112266 0.155059
H41   H     H_    0.382530 0.973522 0.386872 0.139287
H42   H     H_    0.571280 0.477729 0.137916 0.181003
H43   H     H_    0.759084 0.330579 0.515648 0.162941
H44   H     H_    0.051161 0.434224 0.392423 0.166333
H45   H     H_    0.387772 0.975974 0.112754 0.156630
H46   H     H_    0.539772 0.637592 0.394603 0.170039
H47   H     H_    0.433818 0.050002 0.607452 0.166095
H48   H     H_    0.965115 0.384646 0.889306 0.152494
H49   H     H_    0.635700 0.540147 0.605579 0.169757
H50   H     H_    0.408617 0.007229 0.884723 0.160972
H51   H     H_    0.973134 0.381865 0.613190 0.139524
H52   H     H_    0.558108 0.594809 0.877214 0.168182
H53   H     H_    0.829202 0.577926 0.919472 0.156845
H54   H     H_    0.346693 0.770045 0.958565 0.170401
H55   H     H_    0.845343 0.724564 0.939272 0.128755
H56   H     H_    0.946126 0.872364 0.912100 0.105100
H57   H     H_    0.033117 0.874279 0.865026 0.138953
H58   H     H_    0.020784 0.729229 0.845388 0.135110
H59   H     H_    0.585012 0.870461 0.614607 0.161760
H60   H     H_    0.701817 0.826110 0.601019 0.159044
H61   H     H_    0.869352 0.938131 0.608334 0.110978
H62   H     H_    0.920133 0.095454 0.628872 0.121729
H63   H     H_    0.804340 0.141413 0.642093 0.170057
H64   H     H_    0.625375 0.372094 0.926752 0.155961
H65   H     H_    0.653693 0.670083 0.528608 0.142612
H66   H     H_    0.586416 0.246916 0.965033 0.124449
H67   H     H_    0.437540 0.099102 0.960933 0.118363
H68   H     H_    0.326959 0.076383 0.918316 0.128499
H69   H     H_    0.364373 0.200989 0.879908 0.170016
H70   H     H_    0.014919 0.733115 0.642956 0.134326
H71   H     H_    0.997659 0.857972 0.618111 0.120305
H72   H     H_    0.881718 0.820743 0.575917 0.101690
H73   H     H_    0.781265 0.657923 0.559046 0.113526
H74   H     H_    0.796306 0.532392 0.583895 0.140372
H75   H     H_    0.805387 0.179293 0.870267 0.168425
H76   H     H_    0.331411 0.758522 0.483666 0.164043
H77   H     H_    0.933530 0.157388 0.889448 0.146325
H78   H     H_    0.901922 0.002171 0.906909 0.110808
H79   H     H_    0.741725 0.868350 0.904858 0.130821
H80   H     H_    0.613263 0.888953 0.885217 0.152497
H81   H     H_    0.340507 0.498545 0.612748 0.142432
H82   H     H_    0.173537 0.439369 0.604166 0.131077
H83   H     H_    0.058127 0.279584 0.620152 0.135729
H84   H     H_    0.109967 0.179034 0.645424 0.124525
H85   H     H_    0.276511 0.236106 0.653900 0.158958
H86   H     H_    0.734182 0.017115 0.356929 0.134436
H87   H     H_    0.767692 0.355102 0.039715 0.167652
H88   H     H_    0.860088 0.001217 0.381706 0.120974
H89   H     H_    0.824308 0.886038 0.423886 0.101717
H90   H     H_    0.661883 0.784933 0.440796 0.113909
H91   H     H_    0.535312 0.798607 0.416015 0.139497
H92   H     H_    0.159537 0.808327 0.137861 0.164291
H93   H     H_    0.126002 0.931026 0.121527 0.151863
H94   H     H_    0.970538 0.889552 0.100876 0.112716
H95   H     H_    0.847900 0.724411 0.096824 0.147517
H96   H     H_    0.879625 0.601004 0.113559 0.161889
H97   H     H_    0.499840 0.343153 0.387834 0.142552
H98   H     H_    0.668017 0.656650 0.472450 0.142498
H99   H     H_    0.441641 0.176499 0.396419 0.131335
H100  H     H_    0.282356 0.060151 0.379972 0.135051
H101  H     H_    0.181306 0.110726 0.354250 0.125399
H102  H     H_    0.237387 0.276945 0.345764 0.158662
H103  H     H_    0.522200 0.786747 0.079807 0.137794
H104  H     H_    0.643609 0.763251 0.055975 0.120826
H105  H     H_    0.804331 0.847333 0.076564 0.103998
H106  H     H_    0.843497 0.955760 0.121106 0.126533
H107  H     H_    0.722951 0.981502 0.144788 0.137299
H108  H     H_    0.872674 0.586766 0.385588 0.161291
N1    N     N_R   0.002973 0.549809 0.083971 -0.398705
N2    N     N_R   0.545468 0.004870 0.915975 -0.391095
N3    N     N_R   0.953444 0.504027 0.578521 -0.394024
N4    N     N_R   0.517605 0.469413 0.922602 -0.382427
N5    N     N_R   0.505003 0.953975 0.421508 -0.394271
N6    N     N_R   0.487240 0.480770 0.084860 -0.382192
N7    N     N_R   0.007747 0.552923 0.416610 -0.394431
N8    N     N_R   0.500753 0.945382 0.077708 -0.392196
N9    N     N_R   0.458685 0.466604 0.418436 -0.386659
N10   N     N_R   0.552506 0.006215 0.583565 -0.394469
N11   N     N_R   0.949068 0.511719 0.921737 -0.395273
N12   N     N_R   0.464417 0.459041 0.581801 -0.386685
O1    O     O_R   0.509640 0.171340 0.784000 -0.448286
O2    O     O_R   0.171340 0.509640 0.216000 -0.443202
O3    O     O_R   0.490360 0.661700 0.284000 -0.440895
O4    O     O_R   0.338300 0.828660 0.216000 -0.444411
O5    O     O_R   0.539230 0.345420 0.781810 -0.497230
O6    O     O_R   0.806190 0.460770 0.718190 -0.498080
O7    O     O_R   0.654580 0.193810 0.781810 -0.507603
O8    O     O_R   0.539230 0.345420 0.718190 -0.487638
O9    O     O_R   0.806190 0.460770 0.781810 -0.514963
O10   O     O_R   0.654580 0.193810 0.718190 -0.503573
O11   O     O_R   0.345420 0.539230 0.281810 -0.487250
O12   O     O_R   0.661700 0.490360 0.716000 -0.441387
O13   O     O_R   0.460770 0.806190 0.218190 -0.516440
O14   O     O_R   0.193810 0.654580 0.281810 -0.504159
O15   O     O_R   0.345420 0.539230 0.218190 -0.481635
O16   O     O_R   0.460770 0.806190 0.281810 -0.497360
O17   O     O_R   0.193810 0.654580 0.218190 -0.509843
O18   O     O_3   0.666667 0.333333 0.750000 -0.274503
O19   O     O_3   0.333333 0.666667 0.250000 -0.276098
O20   O     O_2   0.143613 0.676571 0.076501 -0.485378
O21   O     O_2   0.637313 0.091191 0.416692 -0.504612
O22   O     O_2   0.343858 0.355422 0.081851 -0.496120
O23   O     O_R   0.828660 0.338300 0.784000 -0.442655
O24   O     O_2   0.142504 0.686195 0.424693 -0.480600
O25   O     O_2   0.630656 0.084241 0.083375 -0.489722
O26   O     O_2   0.306069 0.357049 0.420712 -0.503359
O27   O     O_2   0.685880 0.141046 0.575989 -0.480280
O28   O     O_2   0.090654 0.638727 0.917301 -0.492173
O29   O     O_2   0.355439 0.306315 0.578990 -0.503100
O30   O     O_2   0.668212 0.147795 0.924581 -0.499467
O31   O     O_2   0.090420 0.636500 0.583825 -0.504691
O32   O     O_2   0.364671 0.364402 0.921528 -0.508169
O33   O     O_2   0.860081 0.424671 0.088510 -0.496725
O34   O     O_R   0.509640 0.171340 0.716000 -0.441647
O35   O     O_2   0.373961 0.817084 0.429092 -0.488044
O36   O     O_2   0.636921 0.595282 0.086030 -0.543405
O37   O     O_2   0.869654 0.421814 0.411235 -0.503050
O38   O     O_2   0.370733 0.807908 0.069493 -0.495299
O39   O     O_2   0.614010 0.565372 0.421768 -0.536251
O40   O     O_2   0.421377 0.868060 0.588455 -0.503673
O41   O     O_2   0.807487 0.386281 0.928935 -0.513171
O42   O     O_2   0.562252 0.614559 0.579061 -0.536580
O43   O     O_2   0.422802 0.860691 0.910408 -0.500741
O44   O     O_2   0.816879 0.372802 0.570436 -0.488660
O45   O     O_R   0.661700 0.490360 0.784000 -0.463157
O46   O     O_2   0.667565 0.581464 0.926340 -0.558978
O47   O     O_R   0.828660 0.338300 0.716000 -0.440600
O48   O     O_R   0.171340 0.509640 0.284000 -0.443256
O49   O     O_R   0.490360 0.661700 0.216000 -0.481462
O50   O     O_R   0.338300 0.828660 0.284000 -0.439727

loop_
_geom_bond_atom_site_label_1
_geom_bond_atom_site_label_2
_ccdc_geom_bond_type
C142  H105  S    
C114  C115  A    
C17   C30   A    
C20   C33   A    
Cr1   O34   S    
C116  H83   S    
C102  C103  A    
C112  O47   A    
Br8   C163  S    
C9    C235  A    
C143  H106  S    
C86   H59   S    
Cr6   O17   S    
C13   O50   A    
C202  N7    S    
C126  C131  A    
C157  H52   S    
C94   C95   A    
C70   C75   A    
C72   H21   S    
C55   C228  A    
C96   C97   A    
Cr4   O19   S    
C113  H48   S    
C95   H67   S    
C98   C99   A    
C197  O10   A    
C79   C203  A    
C140  H103  S    
C2    O49   A    
C63   H30   S    
C113  C167  A    
C3    O24   D    
C64   H29   S    
C74   H65   S    
C17   N8    Am   
C184  C198  A    
C135  C169  A    
C89   C91   A    
C57   C161  A    
C156  H10   S    
C92   C93   A    
C133  C134  A    
C181  H19   S    
C193  C206  A    
C13   C218  S    
C107  H77   S    
C238  O20   D    
C70   H2    S    
C128  C129  A    
C19   C32   A    
C230  O48   A    
C111  C114  A    
C105  C195  S    
Br1   C159  S    
C67   H13   S    
C10   O31   D    
C1    O5    A    
C110  H80   S    
C128  H93   S    
C185  C199  A    
C30   C43   A    
C78   C193  S    
C78   C80   A    
C32   C45   A    
C24   C220  S    
C54   C64   A    
C177  H24   S    
C239  N5    Am   
C154  H8    S    
C36   C75   A    
C142  C143  A    
C85   C91   A    
C26   C65   A    
C210  N3    S    
C16   N7    Am   
C96   H68   S    
C93   H64   S    
C18   C31   A    
Br11  C167  S    
C129  H94   S    
C98   C104  A    
C106  H75   S    
Br9   C165  S    
C14   O35   D    
C123  C125  A    
C33   C47   A    
C37   C50   A    
C34   C48   A    
C60   H27   S    
C132  C133  A    
C35   C159  A    
C127  C128  A    
C175  O8    A    
Cr4   O48   S    
C194  C207  A    
C6    O27   D    
C12   O33   D    
C183  C215  A    
C112  O6    A    
C15   N6    Am   
C19   O40   D    
C118  H85   S    
C10   C236  A    
C25   C38   A    
Cr2   O18   S    
C12   N1    Am   
C69   H12   S    
C219  C222  S    
C170  C215  A    
Br3   C170  S    
Cr6   O14   S    
C189  C202  A    
C69   C76   A    
Cr5   O19   S    
C68   C162  A    
C175  C217  S    
C71   C74   A    
C5    C231  A    
C54   C227  A    
C86   C87   A    
C143  C144  A    
C219  O13   A    
Cr3   O10   S    
Cr1   O8    S    
C16   O37   D    
C63   C236  A    
C3    N7    Am   
Br7   C162  S    
C120  H86   S    
C35   C199  A    
C31   C71   A    
C180  C193  A    
C152  C158  A    
C99   C100  A    
C92   C198  S    
C116  C117  A    
C100  C102  A    
C85   C86   A    
C124  C207  A    
C173  C218  A    
C197  O34   A    
C123  H90   S    
C147  H108  S    
Cr5   O3    S    
C59   C232  A    
Cr2   O45   S    
C45   C232  A    
C209  N2    S    
C196  C210  A    
C103  C104  A    
C108  H78   S    
C6    N10   Am   
Cr1   O5    S    
C132  C138  A    
C183  C196  A    
C238  N1    Am   
C57   H42   S    
C81   H55   S    
C55   H38   S    
C23   C37   A    
Cr4   O15   S    
C15   C28   A    
C161  C224  A    
C40   C226  A    
C89   H62   S    
C208  O3    A    
C13   O16   A    
C65   C73   A    
C186  O23   A    
C11   N4    Am   
C38   C51   A    
C174  C224  A    
C164  C216  S    
C168  C217  A    
C211  N4    S    
C27   C66   A    
C208  C221  S    
C35   H40   S    
C126  C127  A    
C11   O32   D    
C26   C39   A    
C18   O39   D    
C135  H50   S    
C173  C187  A    
Br2   C169  S    
C62   H31   S    
C105  C110  A    
C102  H72   S    
C58   C231  A    
C50   C236  A    
C56   C229  A    
C21   O42   D    
C28   C67   A    
C178  C221  A    
Cr4   O11   S    
C73   H1    S    
C15   O36   D    
C65   H87   S    
Cr4   O2    S    
C176  C223  A    
C100  H71   S    
Cr6   O4    S    
C53   H34   S    
C90   C204  A    
C186  O9    A    
Br12  C168  S    
C195  C209  A    
C111  C118  A    
C183  H17   S    
C190  C203  A    
C53   C226  A    
C1    O45   A    
C55   C63   A    
C18   N9    Am   
C7    O28   D    
C184  H16   S    
C108  C109  A    
C117  C118  A    
C6    C232  A    
C230  O14   A    
C24   O2    A    
C227  C240  A    
C182  C195  A    
C78   C84   A    
C122  C123  A    
C177  C190  A    
C172  H22   S    
C208  O11   A    
C178  H23   S    
C167  C212  A    
C105  C106  A    
C41   C51   A    
C148  H3    S    
C43   C49   A    
C127  H92   S    
C88   C89   A    
Br5   C160  S    
Br4   C171  S    
C225  C238  A    
C206  N11   S    
C155  H9    S    
C67   C77   A    
C88   H61   S    
C126  C185  S    
C145  C189  S    
C140  C141  A    
C179  C213  A    
C117  H84   S    
Cr6   O19   S    
Cr2   O6    S    
C112  C215  S    
C179  H15   S    
Cr5   O16   S    
C80   H53   S    
C103  H73   S    
C4    N8    Am   
C181  C217  A    
C162  C223  A    
C41   C227  A    
C149  C150  A    
C68   H44   S    
C153  C154  A    
C152  C153  A    
C104  H74   S    
C165  C221  A    
C226  C239  A    
C14   C27   A    
C56   H37   S    
C16   C29   A    
C187  C200  A    
C182  C216  A    
C166  C213  A    
C14   N5    Am   
C151  H6    S    
C139  C140  A    
C52   H35   S    
C99   H70   S    
C84   H58   S    
C164  O1    A    
C156  C158  A    
C101  C166  A    
C145  C147  A    
C21   C34   A    
C37   C76   A    
C174  C188  A    
C197  C213  S    
Cr3   O23   S    
C64   C237  A    
C23   N3    Am   
C134  C136  A    
C136  H100  S    
C191  C204  A    
Cr1   O1    S    
C57   C201  A    
C180  C212  A    
C155  C156  A    
C5    N9    Am   
C61   C234  A    
C42   C50   A    
C3    C228  A    
Cr5   O49   S    
C82   H56   S    
C111  C194  S    
C60   C233  A    
C46   C160  A    
C119  C125  A    
C109  H79   S    
C132  C191  S    
C22   N2    Am   
C38   C77   A    
C147  C148  A    
C29   C69   A    
C58   C61   A    
C61   H33   S    
C139  C144  A    
C109  C110  A    
C174  H26   S    
C51   C237  A    
C141  H104  S    
C121  C122  A    
C146  H51   S    
C49   C235  A    
C179  C192  A    
C139  C190  S    
C119  C120  A    
C20   O41   D    
C115  H82   S    
C1    C214  S    
Cr2   O12   S    
C150  C151  A    
C9    O30   D    
C239  O21   D    
C75   H54   S    
C240  O22   D    
C198  C211  A    
C43   C229  A    
C8    N12   Am   
C10   N3    Am   
C76   H43   S    
C32   C72   A    
C107  C108  A    
Br6   C161  S    
C46   C200  A    
C22   O43   D    
C93   C94   A    
C83   H57   S    
C11   C237  A    
C137  C138  A    
C133  H97   S    
C21   N12   Am   
C80   C81   A    
C25   O46   D    
C82   C83   A    
C199  N1    S    
C97   H69   S    
C40   C45   A    
C131  H96   S    
C44   C48   A    
C5    O26   D    
C172  C185  A    
C130  C131  A    
C98   C196  S    
C25   N4    Am   
C180  H14   S    
C56   C62   A    
C207  N12   S    
C152  C188  S    
C48   C234  A    
C81   C82   A    
C144  H107  S    
C186  C212  S    
C83   C84   A    
C30   C70   A    
C2    O15   A    
C173  H20   S    
C2    C224  S    
C46   H41   S    
C71   H98   S    
Cr1   O18   S    
C92   C97   A    
C178  C191  A    
C137  H101  S    
C176  C189  A    
C9    N2    Am   
C106  C107  A    
C7    N11   Am   
C149  H4    S    
C157  C171  A    
C121  H88   S    
C120  C121  A    
C101  H47   S    
Cr3   O7    S    
C200  N5    S    
C145  C151  A    
C135  C209  A    
C8    O29   D    
C4    C229  A    
C8    C234  A    
C27   C40   A    
C176  H25   S    
C146  C210  A    
C153  H7    S    
C158  H11   S    
C20   N11   Am   
C171  C214  A    
C101  C205  A    
C114  H81   S    
C169  C216  A    
C24   O17   A    
C184  C214  A    
C164  O7    A    
Cr3   O18   S    
C122  H89   S    
Br10  C166  S    
C138  H102  S    
C136  C137  A    
C172  C220  A    
C47   C233  A    
C219  O4    A    
C160  C218  A    
C68   C202  A    
C53   C59   A    
C90   H46   S    
C87   H60   S    
C33   C73   A    
C223  C230  S    
C125  H91   S    
Cr3   O47   S    
C31   C44   A    
C175  O12   A    
C12   C26   A    
C87   C88   A    
C95   C96   A    
C163  C222  A    
C66   H76   S    
C188  C201  A    
C52   C225  A    
C79   C163  A    
C39   C225  A    
C177  C222  A    
C146  C170  A    
C4    O25   D    
C44   C231  A    
C154  C155  A    
C39   C47   A    
C23   O44   D    
C7    C233  A    
C203  N8    S    
C19   N10   Am   
C59   H28   S    
C159  C220  A    
C94   H66   S    
C181  C194  A    
C91   H63   S    
C134  H99   S    
C119  C187  S    
C240  N6    Am   
C124  C168  A    
C54   H39   S    
C182  H18   S    
C205  N10   S    
C192  C205  A    
C148  C149  A    
C42   C228  A    
C129  C130  A    
C113  C206  A    
C204  N9    S    
C62   C235  A    
C124  H49   S    
C36   C49   A    
C157  C211  A    
C150  H5    S    
Cr2   O9    S    
C17   O38   D    
C52   C60   A    
C29   C42   A    
C79   H45   S    
C66   C72   A    
C77   H32   S    
C22   C36   A    
C130  H95   S    
C28   C41   A    
C90   C165  A    
C58   H36   S    
C85   C192  S    
C141  C142  A    
Cr5   O13   S    
C201  N6    S    
C115  C116  A    
Cr6   O50   S    
C34   C74   A    
