data_mof_unit_2700.cif
_audit_creation_date              2013-03-05T15:48:36-0500
_audit_creation_method            fapswitch 2.2
_symmetry_space_group_name_H-M    P1
_symmetry_Int_Tables_number       1
_space_group_crystal_system       triclinic
_cell_length_a                    16.674474
_cell_length_b                    16.67849
_cell_length_c                    42.86337
_cell_angle_alpha                 89.709123
_cell_angle_beta                  89.93587
_cell_angle_gamma                 119.960934
_cell_volume                      10327.3092789

loop_
_atom_site_label
_atom_site_type_symbol
_atom_site_description
_atom_site_fract_x
_atom_site_fract_y
_atom_site_fract_z
_atom_type_partial_charge
O1    O     O_R   0.509640 0.171340 0.784000 -0.493723
O2    O     O_R   0.661700 0.490360 0.716000 -0.455204
O3    O     O_R   0.828660 0.338300 0.784000 -0.493027
O4    O     O_R   0.509640 0.171340 0.716000 -0.448759
O5    O     O_R   0.661700 0.490360 0.784000 -0.494393
O6    O     O_R   0.828660 0.338300 0.716000 -0.449435
O7    O     O_R   0.171340 0.509640 0.284000 -0.448829
O8    O     O_R   0.490360 0.661700 0.216000 -0.493172
O9    O     O_R   0.338300 0.828660 0.284000 -0.454662
O10   O     O_R   0.171340 0.509640 0.216000 -0.489997
O11   O     O_R   0.490360 0.661700 0.284000 -0.449141
O12   O     O_R   0.338300 0.828660 0.216000 -0.493752
O13   O     O_R   0.539230 0.345420 0.781810 -0.507815
O14   O     O_R   0.806190 0.460770 0.718190 -0.492232
O15   O     O_R   0.654580 0.193810 0.781810 -0.507576
O16   O     O_R   0.539230 0.345420 0.718190 -0.489332
O17   O     O_R   0.806190 0.460770 0.781810 -0.507473
O18   O     O_R   0.654580 0.193810 0.718190 -0.493436
O19   O     O_R   0.345420 0.539230 0.281810 -0.496487
O20   O     O_R   0.460770 0.806190 0.218190 -0.506251
O21   O     O_R   0.193810 0.654580 0.281810 -0.492704
O22   O     O_R   0.345420 0.539230 0.218190 -0.503647
O23   O     O_R   0.460770 0.806190 0.281810 -0.492870
O24   O     O_R   0.193810 0.654580 0.218190 -0.510799
C1    C     C_R   0.583128 0.426351 0.794439 0.562688
C2    C     C_R   0.842254 0.416077 0.705096 0.560202
C3    C     C_R   0.573301 0.156490 0.794431 0.555264
C4    C     C_R   0.583390 0.427287 0.705563 0.564719
C5    C     C_R   0.843132 0.416497 0.794447 0.563892
C6    C     C_R   0.573676 0.157306 0.705429 0.556594
C7    C     C_R   0.425935 0.584125 0.294993 0.557558
C8    C     C_R   0.416846 0.843497 0.205564 0.563982
C9    C     C_R   0.155241 0.572314 0.294353 0.560211
C10   C     C_R   0.426694 0.583525 0.205546 0.563581
C11   C     C_R   0.416430 0.842742 0.294560 0.555200
C12   C     C_R   0.157057 0.573757 0.205493 0.510322
Cr1   Cr    Cr6+3 0.530290 0.262330 0.750000 1.065821
Cr2   Cr    Cr6+3 0.732040 0.469710 0.750000 1.058982
Cr3   Cr    Cr6+3 0.737670 0.267960 0.750000 1.061950
Cr4   Cr    Cr6+3 0.262330 0.530290 0.250000 1.075914
Cr5   Cr    Cr6+3 0.469710 0.732040 0.250000 1.064418
Cr6   Cr    Cr6+3 0.267960 0.737670 0.250000 1.052425
O25   O     O_3   0.666667 0.333333 0.750000 -0.264812
O26   O     O_3   0.333333 0.666667 0.250000 -0.262334
H1    H     H_    0.756261 0.329898 0.983570 0.158543
H2    H     H_    0.333378 0.993938 0.528120 0.172778
H3    H     H_    0.431834 0.652471 0.960631 0.166464
H4    H     H_    0.215566 0.667671 0.538546 0.169480
H5    H     H_    0.570781 0.243711 0.982191 0.160554
H6    H     H_    0.532406 0.300212 0.518127 0.166245
H7    H     H_    0.339509 0.005359 0.471708 0.172315
H8    H     H_    0.779496 0.347218 0.039497 0.166918
H9    H     H_    0.522535 0.315720 0.462184 0.173550
H10   H     H_    0.564269 0.221378 0.038268 0.165632
H11   H     H_    0.240907 0.681131 0.482558 0.162637
H12   H     H_    0.425515 0.669410 0.016577 0.158308
C13   C     C_R   0.893798 0.449020 0.824418 -0.003740
C14   C     C_R   0.559617 0.111786 0.674592 0.027141
C15   C     C_R   0.549659 0.443911 0.824363 -0.002701
C16   C     C_R   0.889483 0.449226 0.674183 0.022717
C17   C     C_R   0.554882 0.104867 0.824371 -0.008105
C18   C     C_R   0.548508 0.445379 0.675799 0.032273
C19   C     C_R   0.448133 0.887848 0.325451 0.023727
C20   C     C_R   0.105816 0.556148 0.175620 -0.036479
C21   C     C_R   0.439365 0.551546 0.326102 0.013010
C22   C     C_R   0.450413 0.895560 0.175715 -0.002611
C23   C     C_R   0.099888 0.553219 0.323835 0.037107
C24   C     C_R   0.445110 0.550983 0.175587 -0.003116
C25   C     C_R   0.097202 0.507024 0.028507 0.039381
C26   C     C_R   0.609929 0.994509 0.467004 0.033416
C27   C     C_R   0.577518 0.507426 0.036519 0.038310
C28   C     C_R   0.928729 0.544076 0.462010 0.035869
C29   C     C_R   0.404979 0.903545 0.029001 0.039590
C30   C     C_R   0.374388 0.484601 0.473664 0.029829
C31   C     C_R   0.613986 0.003587 0.533185 0.033750
C32   C     C_R   0.070005 0.494723 0.963379 0.038400
C33   C     C_R   0.388622 0.469133 0.538986 0.036460
C34   C     C_R   0.420812 0.929630 0.963768 0.038602
C35   C     C_R   0.899341 0.530532 0.527389 0.027374
C36   C     C_R   0.593270 0.496064 0.971371 0.039491
C37   C     C_R   0.109493 0.516935 0.060900 0.423153
C38   C     C_R   0.603172 0.984897 0.434187 0.443269
C39   C     C_R   0.563303 0.508166 0.068823 0.433259
C40   C     C_R   0.944109 0.544957 0.429590 0.424573
C41   C     C_R   0.402602 0.891777 0.061452 0.423242
C42   C     C_R   0.373733 0.497226 0.441181 0.433746
C43   C     C_R   0.616406 0.013248 0.565996 0.443333
C44   C     C_R   0.054944 0.493448 0.931080 0.433155
C45   C     C_R   0.403211 0.467252 0.571340 0.425799
C46   C     C_R   0.435385 0.944118 0.931443 0.432935
C47   C     C_R   0.885403 0.518293 0.559877 0.433052
C48   C     C_R   0.596001 0.486493 0.938967 0.423019
O27   O     O_2   0.187674 0.552868 0.071692 -0.495005
O28   O     O_2   0.659215 0.972354 0.419811 -0.497412
O29   O     O_2   0.590024 0.468786 0.086534 -0.490567
O30   O     O_2   0.878440 0.513170 0.411709 -0.503290
O31   O     O_2   0.359806 0.813848 0.072679 -0.495329
O32   O     O_2   0.336531 0.538654 0.430546 -0.461585
O33   O     O_2   0.684738 0.025634 0.580441 -0.500599
O34   O     O_2   0.120910 0.533204 0.913309 -0.490692
O35   O     O_2   0.376785 0.506020 0.589298 -0.502658
O36   O     O_2   0.409293 0.877848 0.914068 -0.491605
O37   O     O_2   0.806959 0.483801 0.570540 -0.462372
O38   O     O_2   0.639475 0.451846 0.928107 -0.498123
N1    N     N_R   0.033784 0.487102 0.080599 -0.389958
N2    N     N_R   0.531415 0.986670 0.418487 -0.383044
N3    N     N_R   0.516982 0.551080 0.080461 -0.388843
N4    N     N_R   0.032880 0.578928 0.418061 -0.390105
N5    N     N_R   0.449362 0.967693 0.080727 -0.389190
N6    N     N_R   0.416104 0.464277 0.421269 -0.387995
N7    N     N_R   0.542766 0.011716 0.581611 -0.382640
N8    N     N_R   0.965729 0.449586 0.919510 -0.388685
N9    N     N_R   0.450049 0.424374 0.582688 -0.389149
N10   N     N_R   0.481417 0.033119 0.919415 -0.389054
N11   N     N_R   0.959630 0.543401 0.579747 -0.389298
N12   N     N_R   0.548997 0.515088 0.919333 -0.388652
C49   C     C_R   0.944619 0.439940 0.069037 0.432030
C50   C     C_R   0.470161 0.004898 0.434562 0.418523
C51   C     C_R   0.487649 0.597375 0.060755 0.423125
C52   C     C_R   0.108246 0.617389 0.437967 0.435523
C53   C     C_R   0.491516 0.056683 0.068706 0.433152
C54   C     C_R   0.453615 0.412511 0.432720 0.427650
C55   C     C_R   0.463610 0.993714 0.565439 0.418677
C56   C     C_R   0.890267 0.402841 0.939281 0.423467
C57   C     C_R   0.477772 0.377524 0.562760 0.434224
C58   C     C_R   0.509909 0.108951 0.938698 0.423590
C59   C     C_R   0.049229 0.587016 0.568229 0.426534
C60   C     C_R   0.505889 0.561214 0.930973 0.433098
O39   O     O_2   0.878492 0.412979 0.086757 -0.492139
O40   O     O_2   0.414944 0.019031 0.420240 -0.503271
O41   O     O_2   0.452916 0.640783 0.071581 -0.496374
O42   O     O_2   0.186642 0.651130 0.427318 -0.459516
O43   O     O_2   0.531177 0.123011 0.086079 -0.490790
O44   O     O_2   0.488849 0.382044 0.414806 -0.498968
O45   O     O_2   0.394090 0.979668 0.579674 -0.503269
O46   O     O_2   0.812215 0.358686 0.928518 -0.497598
O47   O     O_2   0.514365 0.335446 0.573329 -0.466001
O48   O     O_2   0.544250 0.186824 0.927470 -0.498484
O49   O     O_2   0.114217 0.610802 0.586098 -0.499816
O50   O     O_2   0.465698 0.587108 0.913332 -0.490896
C61   C     C_R   0.929730 0.424934 0.036799 0.038505
C62   C     C_R   0.468468 0.003694 0.467202 0.033099
C63   C     C_R   0.496437 0.593871 0.028327 0.039435
C64   C     C_R   0.095275 0.616430 0.470466 0.029118
C65   C     C_R   0.491163 0.071114 0.036390 0.038264
C66   C     C_R   0.453948 0.397113 0.465073 0.035524
C67   C     C_R   0.463629 0.994989 0.532797 0.033163
C68   C     C_R   0.902612 0.406746 0.971703 0.039358
C69   C     C_R   0.466050 0.379635 0.530335 0.028062
C70   C     C_R   0.500791 0.097172 0.971158 0.039745
C71   C     C_R   0.065778 0.601452 0.535833 0.037908
C72   C     C_R   0.505953 0.576254 0.963212 0.038252
C73   C     C_R   0.006694 0.461419 0.016419 -0.031823
C74   C     C_R   0.539224 0.999101 0.483540 -0.032923
C75   C     C_R   0.540927 0.547825 0.016176 -0.032005
C76   C     C_R   0.004746 0.577783 0.482545 -0.030583
C77   C     C_R   0.450384 0.993839 0.016428 -0.032128
C78   C     C_R   0.416386 0.435735 0.485654 -0.031195
C79   C     C_R   0.539073 0.999284 0.516555 -0.033187
C80   C     C_R   0.993099 0.453778 0.983784 -0.032042
C81   C     C_R   0.422965 0.427474 0.518377 -0.031036
C82   C     C_R   0.456753 0.006888 0.983732 -0.032079
C83   C     C_R   0.990003 0.570649 0.515307 -0.030526
C84   C     C_R   0.547248 0.540569 0.983531 -0.031907
C85   C     C_R   0.173325 0.543540 0.007948 -0.128556
C86   C     C_R   0.683000 0.995701 0.483843 -0.118158
C87   C     C_R   0.624770 0.464747 0.024036 -0.125964
C88   C     C_R   0.838938 0.507163 0.474449 -0.117452
C89   C     C_R   0.365243 0.827097 0.008867 -0.127743
C90   C     C_R   0.336582 0.522119 0.494453 -0.121612
C91   C     C_R   0.685958 0.002087 0.516445 -0.118077
C92   C     C_R   0.159929 0.538428 0.975792 -0.125419
C93   C     C_R   0.343915 0.514807 0.526657 -0.118367
C94   C     C_R   0.373989 0.839938 0.976654 -0.126322
C95   C     C_R   0.824469 0.500711 0.506668 -0.122185
C96   C     C_R   0.633488 0.460118 0.991869 -0.128979
C97   C     C_R   0.839859 0.376713 0.024408 -0.125757
C98   C     C_R   0.395442 0.003143 0.483771 -0.124606
C99   C     C_R   0.459602 0.633206 0.007814 -0.127537
C100  C     C_R   0.170506 0.650422 0.491189 -0.130526
C101  C     C_R   0.533204 0.160787 0.023507 -0.126332
C102  C     C_R   0.493864 0.346854 0.477391 -0.123169
C103  C     C_R   0.391568 0.995884 0.516133 -0.123762
C104  C     C_R   0.826515 0.366823 0.992276 -0.128312
C105  C     C_R   0.499493 0.337913 0.509567 -0.129352
C106  C     C_R   0.536997 0.173614 0.991295 -0.127905
C107  C     C_R   0.155951 0.642748 0.523402 -0.123204
C108  C     C_R   0.463306 0.623551 0.975673 -0.125421
C109  C     C_R   0.013941 0.441707 0.136226 -0.065798
C110  C     C_R   0.416825 0.882944 0.381024 -0.026631
C111  C     C_R   0.560589 0.573853 0.136159 -0.073242
C112  C     C_R   0.082784 0.506935 0.378692 -0.031496
C113  C     C_R   0.427379 0.988587 0.136469 -0.073505
C114  C     C_R   0.480101 0.585761 0.381125 -0.053113
C115  C     C_R   0.531141 0.115156 0.619134 -0.022368
C116  C     C_R   0.986819 0.426874 0.863790 -0.073466
C117  C     C_R   0.576334 0.485741 0.620494 -0.031969
C118  C     C_R   0.438927 0.011617 0.863656 -0.069719
C119  C     C_R   0.893382 0.418672 0.618654 -0.043104
C120  C     C_R   0.571030 0.558718 0.863482 -0.073876
C121  C     C_R   0.038584 0.463858 0.167585 -0.049876
C122  C     C_R   0.385582 0.854859 0.350889 0.049045
C123  C     C_R   0.537424 0.575010 0.167594 0.008898
C124  C     C_R   0.106239 0.497724 0.348096 0.048103
C125  C     C_R   0.426236 0.963858 0.167877 0.008467
C126  C     C_R   0.487691 0.616439 0.350263 0.030445
C127  C     C_R   0.528909 0.144056 0.649255 0.052052
C128  C     C_R   0.962467 0.425524 0.832365 0.007930
C129  C     C_R   0.610696 0.490988 0.650565 0.056448
C130  C     C_R   0.462577 0.036044 0.832250 0.008980
C131  C     C_R   0.868301 0.385693 0.649221 0.038815
C132  C     C_R   0.572504 0.535830 0.832093 0.008640
C133  C     C_R   0.135743 0.626744 0.152369 -0.047587
C134  C     C_R   0.541992 0.955588 0.331187 -0.035860
C135  C     C_R   0.375403 0.512587 0.152235 -0.064197
C136  C     C_R   0.050787 0.600780 0.330270 -0.042552
C137  C     C_R   0.489670 0.865221 0.152288 -0.061331
C138  C     C_R   0.393106 0.455444 0.333727 -0.041772
C139  C     C_R   0.585207 0.043617 0.668843 -0.039591
C140  C     C_R   0.861875 0.486877 0.847814 -0.063209
C141  C     C_R   0.452006 0.406822 0.670471 -0.054736
C142  C     C_R   0.624249 0.136143 0.847841 -0.061473
C143  C     C_R   0.945666 0.545547 0.667665 -0.033041
C144  C     C_R   0.511957 0.374087 0.847933 -0.063052
C145  C     C_R   0.104864 0.602839 0.121737 -0.031649
C146  C     C_R   0.570235 0.989031 0.361827 -0.016175
C147  C     C_R   0.400192 0.506674 0.121585 -0.034616
C148  C     C_R   0.026218 0.607148 0.361303 -0.032803
C149  C     C_R   0.495571 0.896344 0.121639 -0.034702
C150  C     C_R   0.388956 0.427015 0.364977 -0.028243
C151  C     C_R   0.579431 0.009718 0.638239 -0.021182
C152  C     C_R   0.892523 0.492945 0.878449 -0.036080
C153  C     C_R   0.419433 0.402518 0.639802 -0.036309
C154  C     C_R   0.599007 0.105257 0.878511 -0.035758
C155  C     C_R   0.970863 0.576387 0.636587 -0.011606
C156  C     C_R   0.505637 0.398493 0.878557 -0.035172
C157  C     C_R   0.049334 0.510500 0.113202 0.191239
C158  C     C_R   0.507534 0.952362 0.386884 0.205326
C159  C     C_R   0.492690 0.542647 0.113081 0.185038
C160  C     C_R   0.047233 0.564698 0.385724 0.214828
C161  C     C_R   0.458852 0.952365 0.113289 0.184605
C162  C     C_R   0.428638 0.492053 0.388808 0.211361
C163  C     C_R   0.552796 0.045918 0.613232 0.204996
C164  C     C_R   0.949646 0.457654 0.886902 0.184319
C165  C     C_R   0.481477 0.438137 0.614662 0.213046
C166  C     C_R   0.506378 0.048586 0.886851 0.182530
C167  C     C_R   0.941699 0.513195 0.611981 0.217308
C168  C     C_R   0.540600 0.490821 0.886786 0.183945
H13   H     H_    0.220272 0.569648 0.960694 0.166318
H14   H     H_    0.744333 0.004931 0.528527 0.169536
H15   H     H_    0.669683 0.426030 0.983096 0.158444
H16   H     H_    0.754061 0.470147 0.515296 0.166605
H17   H     H_    0.344888 0.779354 0.961893 0.164921
H18   H     H_    0.316052 0.546712 0.541867 0.170538
H19   H     H_    0.738583 0.992621 0.471838 0.169675
H20   H     H_    0.243585 0.578312 0.016666 0.157254
H21   H     H_    0.303207 0.559353 0.485883 0.163407
H22   H     H_    0.329547 0.757010 0.017976 0.160081
H23   H     H_    0.779255 0.481391 0.459301 0.172724
H24   H     H_    0.654356 0.433937 0.039086 0.166432
H25   H     H_    0.866735 0.519432 0.896562 0.162448
H26   H     H_    0.595235 0.955183 0.633890 0.157795
H27   H     H_    0.479348 0.346209 0.896810 0.163863
H28   H     H_    0.010857 0.649723 0.631349 0.147471
H29   H     H_    0.650861 0.130765 0.896721 0.162258
H30   H     H_    0.345794 0.368778 0.635294 0.148691
H31   H     H_    0.640548 0.043468 0.366169 0.157924
H32   H     H_    0.129412 0.655678 0.103682 0.159402
H33   H     H_    0.351080 0.354134 0.371048 0.145969
H34   H     H_    0.522700 0.871451 0.103445 0.161430
H35   H     H_    0.993532 0.647604 0.366639 0.145700
H36   H     H_    0.347975 0.479825 0.103499 0.161473
H37   H     H_    0.968323 0.370448 0.129551 0.182190
H38   H     H_    0.368202 0.853583 0.400297 0.170763
H39   H     H_    0.631833 0.598430 0.129457 0.187485
H40   H     H_    0.092023 0.468655 0.397520 0.167054
H41   H     H_    0.402357 0.034983 0.129862 0.187855
H42   H     H_    0.513925 0.635471 0.399647 0.156824
H43   H     H_    0.511549 0.144258 0.599896 0.173669
H44   H     H_    0.033910 0.402810 0.870459 0.187848
H45   H     H_    0.623963 0.516834 0.601055 0.158235
H46   H     H_    0.367647 0.964779 0.870281 0.195056
H47   H     H_    0.874429 0.370183 0.599550 0.153955
H48   H     H_    0.594861 0.629785 0.869973 0.188058
C169  C     C_3   0.788673 0.512786 0.841892 -0.343157
H49   H     H_    0.724114 0.450150 0.834679 0.143517
H50   H     H_    0.772015 0.539811 0.863095 0.147346
H51   H     H_    0.812631 0.567742 0.823746 0.177904
C170  C     C_3   0.614811 0.003886 0.695083 -0.374748
H52   H     H_    0.560511 0.975567 0.713494 0.163567
H53   H     H_    0.625918 0.947052 0.686925 0.139240
H54   H     H_    0.680688 0.058284 0.705253 0.157093
C171  C     C_3   0.486560 0.275193 0.842168 -0.342461
H55   H     H_    0.431789 0.244210 0.824161 0.178190
H56   H     H_    0.549415 0.273552 0.834805 0.143089
H57   H     H_    0.459497 0.231381 0.863477 0.149516
C172  C     C_3   0.980932 0.616093 0.693439 -0.375834
H58   H     H_    0.015310 0.595953 0.711526 0.159516
H59   H     H_    0.032363 0.685971 0.684598 0.136958
H60   H     H_    0.923401 0.621375 0.704256 0.161470
C173  C     C_3   0.723510 0.209050 0.841947 -0.341906
H61   H     H_    0.754465 0.185303 0.823854 0.178646
H62   H     H_    0.725877 0.274006 0.834662 0.143335
H63   H     H_    0.766903 0.224857 0.863182 0.146820
C174  C     C_3   0.383294 0.371507 0.697069 -0.382858
H64   H     H_    0.405043 0.425850 0.715150 0.163849
H65   H     H_    0.312945 0.353660 0.689122 0.140099
H66   H     H_    0.378318 0.308459 0.707679 0.165403
C175  C     C_3   0.611425 0.994987 0.304942 -0.366829
H67   H     H_    0.585559 0.023067 0.286438 0.161249
H68   H     H_    0.679266 0.051919 0.313059 0.144707
H69   H     H_    0.622986 0.940361 0.294945 0.160065
C176  C     C_3   0.207213 0.726174 0.158399 -0.337815
H70   H     H_    0.182573 0.755144 0.176879 0.175971
H71   H     H_    0.272956 0.729708 0.165211 0.148047
H72   H     H_    0.222029 0.770607 0.137341 0.144178
C177  C     C_3   0.347044 0.382010 0.309166 -0.363416
H73   H     H_    0.394137 0.397989 0.288847 0.157769
H74   H     H_    0.329782 0.312651 0.318215 0.137110
H75   H     H_    0.281543 0.377906 0.301547 0.186761
C178  C     C_3   0.517183 0.793133 0.158199 -0.341268
H76   H     H_    0.454936 0.727528 0.165227 0.143855
H77   H     H_    0.546085 0.778395 0.137033 0.146016
H78   H     H_    0.571251 0.817115 0.176480 0.179307
C179  C     C_3   0.021308 0.642158 0.304415 -0.385035
H79   H     H_    0.984822 0.589522 0.286078 0.148452
H80   H     H_    0.973049 0.664793 0.313133 0.139933
H81   H     H_    0.081580 0.703357 0.293859 0.170646
C180  C     C_3   0.276093 0.485914 0.158209 -0.337208
H82   H     H_    0.245560 0.431215 0.176455 0.184484
H83   H     H_    0.273483 0.548334 0.165302 0.148020
H84   H     H_    0.232448 0.458234 0.137058 0.147863
C181  C     C_2   0.994721 0.388337 0.191293 0.627320
O51   O     O_2   0.979157 0.310605 0.184883 -0.447397
O52   O     O_R   0.968885 0.403654 0.220758 -0.618467
H85   H     H_    0.976329 0.467448 0.223004 0.292523
C182  C     C_2   0.285455 0.794231 0.347394 0.592001
O53   O     O_2   0.247746 0.716686 0.358837 -0.494165
O54   O     O_R   0.233502 0.830010 0.334006 -0.662945
H86   H     H_    0.164765 0.788768 0.337531 0.330385
C183  C     C_2   0.610894 0.601708 0.191530 0.604559
O55   O     O_2   0.692266 0.652187 0.184479 -0.502786
O56   O     O_R   0.587387 0.566898 0.221974 -0.668946
H87   H     H_    0.643384 0.589776 0.236025 0.352155
C184  C     C_2   0.134440 0.427426 0.343149 0.582587
O57   O     O_2   0.100366 0.371462 0.322011 -0.478022
O58   O     O_R   0.192861 0.419197 0.364655 -0.674390
H88   H     H_    0.200139 0.363450 0.360414 0.333188
C185  C     C_2   0.399132 0.009954 0.191955 0.605687
O59   O     O_2   0.348578 0.040904 0.185100 -0.500323
O60   O     O_R   0.433593 0.020481 0.222312 -0.672818
H89   H     H_    0.410427 0.053140 0.236488 0.350892
C186  C     C_2   0.544260 0.717473 0.345037 0.593849
O61   O     O_2   0.527529 0.769792 0.359898 -0.510912
O62   O     O_R   0.620743 0.753205 0.324983 -0.653845
H90   H     H_    0.655134 0.823322 0.324042 0.338645
C187  C     C_2   0.491028 0.206314 0.652773 0.593029
O63   O     O_2   0.529769 0.282086 0.640051 -0.488975
O64   O     O_R   0.405980 0.174206 0.667836 -0.658319
H91   H     H_    0.380820 0.217863 0.665350 0.332227
C188  C     C_2   0.009637 0.399238 0.808387 0.604327
O65   O     O_2   0.041158 0.349273 0.815414 -0.501878
O66   O     O_R   0.020601 0.433867 0.777932 -0.672739
H92   H     H_    0.054070 0.411331 0.763855 0.351011
C189  C     C_2   0.712290 0.541273 0.653865 0.588426
O67   O     O_2   0.758588 0.517342 0.638608 -0.483031
O68   O     O_R   0.755381 0.619896 0.672610 -0.669320
H93   H     H_    0.825332 0.651677 0.671406 0.330568
C190  C     C_2   0.389095 0.988935 0.808399 0.601677
O69   O     O_2   0.409460 0.979966 0.781725 -0.487828
O70   O     O_R   0.296019 0.951978 0.816711 -0.692073
H94   H     H_    0.252573 0.920887 0.798577 0.353700
C191  C     C_2   0.817690 0.284030 0.653359 0.590107
O71   O     O_2   0.748483 0.236615 0.637879 -0.510622
O72   O     O_R   0.853128 0.241923 0.672893 -0.656745
H95   H     H_    0.814102 0.171944 0.672769 0.338383
C192  C     C_2   0.598424 0.609161 0.807914 0.604733
O73   O     O_2   0.647577 0.690684 0.814704 -0.502218
O74   O     O_R   0.564383 0.585294 0.777534 -0.674449
H96   H     H_    0.586598 0.641211 0.763300 0.350512

loop_
_geom_bond_atom_site_label_1
_geom_bond_atom_site_label_2
_geom_bond_distance
_ccdc_geom_bond_type
C88   C95   1.395991 A    
C155  H28   1.083210 S    
C38   O28   1.221496 D    
C19   C122  1.413388 A    
C51   C63   1.402087 A    
H11   C100  1.083425 S    
N4    C52   1.386192 Am   
C52   C64   1.408248 A    
C109  C157  1.396247 A    
C120  C168  1.396822 A    
C182  O53   1.220351 D    
C173  H61   1.109566 S    
C33   C45   1.411123 A    
C187  O63   1.220058 D    
C42   N6    1.385951 Am   
N8    C56   1.385775 Am   
O21   C9    1.302148 A    
O17   C5    1.291937 A    
O10   Cr4   2.008120 S    
C68   C80   1.408439 A    
C18   C141  1.422579 A    
O12   Cr6   1.999613 S    
C153  H30   1.083139 S    
H5    C106  1.083289 S    
C89   C94   1.392476 A    
H7    C98   1.083429 S    
C145  H32   1.084045 S    
O1    Cr1   1.999993 S    
C175  H68   1.110709 S    
O3    Cr3   2.011616 S    
N2    C50   1.386018 Am   
O7    C9    1.283102 A    
C111  C123  1.404125 A    
C186  O62   1.397745 S    
C113  H41   1.083328 S    
C45   N9    1.383167 Am   
C142  C173  1.505852 S    
C115  H43   1.084983 S    
C10   C24   1.486805 S    
C99   C108  1.392762 A    
C181  O51   1.221207 D    
C102  C105  1.394758 A    
C136  C179  1.509416 S    
C36   C48   1.402186 A    
C177  H75   1.109306 S    
C100  C107  1.395794 A    
O14   Cr2   1.895382 S    
C143  C172  1.508068 S    
N6    C162  1.445810 S    
C94   H17   1.083637 S    
O15   C3    1.292000 A    
O62   H90   1.013761 S    
C137  C178  1.506101 S    
C112  C124  1.399042 A    
O14   C2    1.297484 A    
C48   N12   1.385902 Am   
O15   Cr3   1.890853 S    
C28   C40   1.411471 A    
C57   C69   1.406423 A    
O5    C1    1.285776 A    
C151  H26   1.082816 S    
C61   C97   1.406026 A    
C147  C159  1.394262 A    
C173  H63   1.111254 S    
C7    C21   1.496116 S    
C109  H37   1.083485 S    
C142  C154  1.395006 A    
N7    C163  1.450316 S    
C45   O35   1.222168 D    
C47   O37   1.222780 D    
O13   C1    1.293160 A    
O72   H95   1.013500 S    
C97   C104  1.392810 A    
C65   C77   1.411652 A    
O23   Cr5   1.900410 S    
C85   H20   1.083075 S    
C126  C186  1.479038 S    
Cr2   O25   1.971133 S    
C169  H50   1.111255 S    
C189  O67   1.221564 D    
C112  H40   1.084406 S    
N5    C53   1.382694 Am   
N9    C165  1.445783 S    
C117  C165  1.393982 A    
C17   C130  1.425086 A    
C46   N10   1.382652 Am   
C26   C38   1.414783 A    
C41   O31   1.223365 D    
C15   C144  1.423892 A    
C48   O38   1.223301 D    
C122  C182  1.465696 S    
O52   H85   1.012879 S    
N8    C164  1.441700 S    
C156  H27   1.084052 S    
C178  H76   1.107669 S    
O64   H91   1.010928 S    
N1    C157  1.441467 S    
C11   C19   1.487620 S    
C12   C20   1.487099 S    
C77   C82   1.412899 A    
N6    C54   1.383228 Am   
H1    C104  1.083306 S    
C64   C76   1.408973 A    
C185  O59   1.223517 D    
C120  H48   1.083232 S    
C156  C168  1.394581 A    
O60   H89   1.013972 S    
C153  C165  1.400546 A    
C131  C191  1.478525 S    
C136  C148  1.411455 A    
C88   H23   1.083404 S    
C148  C160  1.400326 A    
C22   C137  1.423850 A    
N10   C58   1.385588 Am   
C176  H71   1.107599 S    
C29   C77   1.408392 A    
C92   H13   1.083581 S    
C179  H80   1.110795 S    
C24   C135  1.424300 A    
C121  C181  1.489714 S    
H8    C97   1.083579 S    
C127  C187  1.468467 S    
C59   C71   1.411243 A    
C60   C72   1.405615 A    
C36   C84   1.408372 A    
C64   C100  1.407588 A    
C174  H65   1.110775 S    
C51   O41   1.223318 D    
C63   C99   1.406627 A    
C49   O39   1.222436 D    
C35   C47   1.408481 A    
C146  H31   1.082827 S    
C54   C66   1.409595 A    
O22   Cr4   1.894268 S    
C27   C87   1.406015 A    
C28   C88   1.406841 A    
C23   C136  1.423396 A    
C111  H39   1.083261 S    
C170  H52   1.110443 S    
C27   C39   1.405699 A    
C183  O56   1.399056 S    
O22   C10   1.292424 A    
C37   N1    1.385693 Am   
C113  C125  1.403308 A    
C20   C133  1.424331 A    
C25   C37   1.402262 A    
O8    Cr5   2.009594 S    
C22   C125  1.424099 A    
C110  C122  1.386805 A    
C154  H29   1.084092 S    
O21   Cr6   1.890477 S    
C55   O45   1.223387 D    
C116  C128  1.404315 A    
C171  H55   1.109535 S    
C150  C162  1.397782 A    
O2    Cr2   2.005084 S    
C63   C75   1.408404 A    
C124  C184  1.481130 S    
C178  H78   1.109665 S    
C86   H19   1.083128 S    
H10   C101  1.083635 S    
O8    C10   1.285399 A    
C62   C74   1.407063 A    
C30   C78   1.409043 A    
C29   C41   1.401486 A    
C31   C43   1.414725 A    
C114  H42   1.084629 S    
C117  H45   1.084743 S    
C89   H22   1.083074 S    
C16   C143  1.424126 A    
O20   C8    1.291956 A    
C115  C163  1.395405 A    
C141  C153  1.411337 A    
C132  C192  1.488272 S    
C113  C161  1.396141 A    
C139  C151  1.415318 A    
C70   C106  1.406602 A    
C101  C106  1.392613 A    
C145  C157  1.394690 A    
C66   C78   1.411731 A    
C13   C140  1.424279 A    
C73   C80   1.413530 A    
C60   O50   1.222421 D    
C74   C79   1.415155 A    
C46   O36   1.222451 D    
H9    C102  1.083385 S    
C58   C70   1.401577 A    
C61   C73   1.411542 A    
O6    C2    1.285477 A    
C172  H60   1.107609 S    
C129  C189  1.475049 S    
C135  C147  1.395479 A    
O17   Cr2   1.896280 S    
C38   N2    1.386488 Am   
C19   C134  1.422632 A    
C118  C130  1.402298 A    
C25   C85   1.406589 A    
C192  O74   1.399113 S    
C133  C145  1.396374 A    
O19   Cr4   1.897585 S    
C147  H36   1.084068 S    
Cr4   O26   1.971184 S    
C110  H38   1.085083 S    
C144  C171  1.505861 S    
C1    C15   1.485879 S    
C2    C16   1.495629 S    
C130  C190  1.487697 S    
C190  O70   1.398780 S    
C4    C18   1.493341 S    
C20   C121  1.423859 A    
C69   C105  1.407267 A    
O24   Cr6   1.902586 S    
C110  C158  1.394982 A    
C72   C108  1.406028 A    
O19   C7    1.297813 A    
C186  O61   1.222060 D    
O74   H96   1.013847 S    
C34   C46   1.405128 A    
C66   C102  1.406389 A    
C71   C107  1.406830 A    
C188  O66   1.399064 S    
C13   C128  1.424218 A    
Cr6   O26   1.969772 S    
C28   C76   1.411820 A    
C125  C185  1.488117 S    
C171  H57   1.111229 S    
C41   N5    1.385529 Am   
C191  O72   1.397496 S    
C43   N7    1.386737 Am   
C67   C103  1.404961 A    
O70   H94   1.013917 S    
C170  H54   1.108805 S    
C172  H58   1.110464 S    
C177  H74   1.110903 S    
C138  C150  1.408661 A    
C78   C81   1.418365 A    
C118  H46   1.083126 S    
C32   C80   1.411576 A    
N12   C168  1.441936 S    
C76   C83   1.419498 A    
O66   H92   1.013855 S    
C184  O58   1.397068 S    
C114  C162  1.393568 A    
C98   C103  1.390426 A    
O16   Cr1   1.890983 S    
C173  H62   1.107493 S    
C187  O64   1.396655 S    
C52   O42   1.222768 D    
O5    Cr2   2.005717 S    
N1    C49   1.382880 Am   
N3    C51   1.385776 Am   
C182  O54   1.396362 S    
N11   C167  1.446978 S    
C181  O52   1.399260 S    
C33   C81   1.411950 A    
C70   C82   1.408404 A    
C56   O46   1.223306 D    
N7    C55   1.386036 Am   
H4    C107  1.083384 S    
O58   H88   1.013225 S    
C141  C174  1.508535 S    
C139  C170  1.506074 S    
C57   O47   1.222767 D    
C183  O55   1.223396 D    
N3    C159  1.441741 S    
C123  C183  1.488073 S    
C25   C73   1.408471 A    
Cr1   O25   1.970723 S    
C49   C61   1.405657 A    
O18   Cr3   1.902114 S    
C169  H49   1.107491 S    
C50   O40   1.223409 D    
C149  C161  1.394458 A    
C149  H34   1.084117 S    
O54   H86   1.010324 S    
N5    C161  1.440729 S    
C93   H18   1.083450 S    
C119  H47   1.084635 S    
C172  H59   1.110796 S    
O24   C12   1.293036 A    
C44   O34   1.222406 D    
C5    C13   1.486659 S    
O23   C11   1.292156 A    
Cr5   O26   1.970645 S    
C69   C81   1.408783 A    
C87   H24   1.083583 S    
C29   C89   1.406472 A    
C8    C22   1.485214 S    
C33   C93   1.406866 A    
C152  C164  1.394125 A    
C128  C188  1.488081 S    
C150  H33   1.083415 S    
C26   C86   1.408473 A    
C144  C156  1.395633 A    
C154  C166  1.394261 A    
C176  H70   1.109576 S    
N10   C166  1.440765 S    
C118  C166  1.396290 A    
C40   N4    1.383503 Am   
C47   N11   1.385991 Am   
C90   H21   1.083341 S    
C179  H79   1.110468 S    
C42   O32   1.222915 D    
C16   C131  1.425117 A    
C112  C160  1.394049 A    
C44   N8    1.382908 Am   
C115  C127  1.387359 A    
O4    Cr1   2.011748 S    
C174  H64   1.110453 S    
N2    C158  1.449974 S    
O9    C11   1.286098 A    
O6    Cr3   2.000495 S    
O10   C12   1.285627 A    
C135  C180  1.505896 S    
C90   C93   1.395988 A    
O16   C4    1.298799 A    
O56   H87   1.013847 S    
C146  C158  1.404586 A    
C65   C101  1.405979 A    
C180  H82   1.109544 S    
O68   H93   1.012989 S    
C67   C79   1.407085 A    
C96   H15   1.083189 S    
O20   Cr5   1.891623 S    
C62   C98   1.404993 A    
C175  H67   1.110490 S    
C91   H14   1.083129 S    
O9    Cr6   2.012714 S    
C120  C132  1.403938 A    
C116  C164  1.396706 A    
C169  H51   1.109520 S    
C189  O68   1.397240 S    
C21   C138  1.424817 A    
N9    C57   1.385854 Am   
N11   C59   1.383556 Am   
O3    C5    1.285111 A    
C40   O30   1.222189 D    
C23   C124  1.427491 A    
C3    C17   1.485366 S    
C137  C149  1.395247 A    
C17   C142  1.423838 A    
C54   O44   1.222339 D    
N4    C160  1.447115 S    
C178  H77   1.111476 S    
O7    Cr4   2.003111 S    
O18   C6    1.293997 A    
C32   C44   1.405691 A    
O13   Cr1   1.901338 S    
C119  C167  1.393747 A    
C85   C92   1.392762 A    
C27   C75   1.411537 A    
C86   C91   1.401083 A    
C185  O60   1.399070 S    
O12   C8    1.284734 A    
C24   C123  1.424334 A    
C32   C92   1.405975 A    
C59   O49   1.222242 D    
C155  C167  1.400051 A    
C43   O33   1.221489 D    
C111  C159  1.396580 A    
C114  C126  1.398531 A    
C152  H25   1.084080 S    
C140  C152  1.395319 A    
C35   C95   1.407685 A    
C36   C96   1.406656 A    
C176  H72   1.111218 S    
Cr3   O25   1.969745 S    
C21   C126  1.426657 A    
C109  C121  1.402423 A    
C140  C169  1.505802 S    
C138  C177  1.507845 S    
H2    C103  1.083428 S    
C179  H81   1.107375 S    
C151  C163  1.404645 A    
C116  H44   1.083269 S    
C37   O27   1.223294 D    
C14   C139  1.422214 A    
C68   C104  1.406670 A    
C174  H66   1.107870 S    
C39   O29   1.222401 D    
C180  H83   1.107512 S    
C30   C42   1.407956 A    
C192  O73   1.223389 D    
C72   C84   1.411486 A    
C143  C155  1.411233 A    
C55   C67   1.399218 A    
C34   C82   1.411667 A    
C71   C83   1.411807 A    
C31   C91   1.408530 A    
C180  H84   1.111244 S    
C53   C65   1.405244 A    
C15   C132  1.423845 A    
C9    C23   1.499998 S    
O1    C3    1.284762 A    
C190  O69   1.223325 D    
C175  H69   1.109089 S    
C31   C79   1.409486 A    
C58   O48   1.223350 D    
C56   C68   1.402171 A    
C26   C74   1.409633 A    
C35   C83   1.409137 A    
C50   C62   1.399149 A    
C148  H35   1.083156 S    
C134  C175  1.505804 S    
C75   C84   1.413457 A    
C188  O65   1.223396 D    
C184  O57   1.222704 D    
C171  H56   1.107615 S    
C191  O71   1.221851 D    
C95   H16   1.083637 S    
C14   C127  1.414877 A    
C6    C14   1.487134 S    
C170  H53   1.110706 S    
C18   C129  1.423052 A    
C39   N3    1.382973 Am   
O11   Cr5   2.001498 S    
C119  C131  1.398514 A    
C133  C176  1.506048 S    
C177  H73   1.110542 S    
C134  C146  1.415676 A    
C30   C90   1.407647 A    
C117  C129  1.396457 A    
O11   C7    1.286253 A    
N12   C60   1.383072 Am   
C34   C94   1.405901 A    
O2    C4    1.282915 A    
C53   O43   1.222441 D    
H3    C108  1.083587 S    
H6    C105  1.083515 S    
O4    C6    1.284463 A    
C87   C96   1.392816 A    
H12   C99   1.083218 S    
