data_mof_unit_232.cif
_audit_creation_date              2012-10-26T17:11:08-0400
_audit_creation_method            fapswitch 2.2
_symmetry_space_group_name_H-M    P1
_symmetry_Int_Tables_number       1
_space_group_crystal_system       monoclinic
_cell_length_a                    28.056988
_cell_length_b                    18.70827
_cell_length_c                    16.774057
_cell_angle_alpha                 90.0
_cell_angle_beta                  62.501765
_cell_angle_gamma                 90.0
_cell_volume                      7809.95763443

loop_
_atom_site_label
_atom_site_type_symbol
_atom_type_description
_atom_site_fract_x
_atom_site_fract_y
_atom_site_fract_z
_atom_type_partial_charge
C1    C     C_R   0.295949 0.730368 0.328692 0.845064
C2    C     C_R   0.469898 0.119310 0.428816 -0.171460
C3    C     C_R   0.925319 0.095388 0.067330 0.829102
C4    C     C_R   0.429074 0.399895 0.064768 0.806368
C5    C     C_R   0.574681 0.595388 0.932669 0.829102
C6    C     C_R   0.572038 0.401024 0.934622 0.802273
C7    C     C_R   0.423396 0.591730 0.069681 0.850190
C8    C     C_R   0.049421 0.500764 0.504717 0.029789
C9    C     C_R   0.952106 0.499615 0.491652 0.025727
C10   C     C_R   0.547894 0.999615 0.508348 0.025727
C11   C     C_R   0.450579 0.000764 0.495283 0.029789
C12   C     C_R   0.014580 0.560607 0.535161 0.060224
C13   C     C_R   0.426016 0.884717 0.567570 -0.191139
C14   C     C_R   0.986873 0.439677 0.461507 0.052329
C15   C     C_R   0.965646 0.559853 0.528839 0.038708
C16   C     C_R   0.036264 0.440855 0.466496 0.051195
C17   C     C_R   0.534354 0.059853 0.471161 0.038708
C18   C     C_R   0.463736 0.940855 0.533503 0.051195
C19   C     C_R   0.485420 0.060607 0.464839 0.060224
C20   C     C_R   0.513127 0.939677 0.538493 0.052328
C21   C     C_R   0.130850 0.439407 0.489472 0.059230
C22   C     C_R   0.870541 0.560950 0.507281 0.028555
C23   C     C_R   0.886014 0.437074 0.457474 0.064436
C24   C     C_R   0.571245 0.116866 0.439361 -0.122319
C25   C     C_R   0.114653 0.562738 0.541268 0.058904
C26   C     C_R   0.613986 0.937073 0.542526 0.064436
C27   C     C_R   0.385347 0.062738 0.458731 0.058904
C28   C     C_R   0.369150 0.939407 0.510528 0.059230
C29   C     C_R   0.629459 0.060950 0.492719 0.028555
C30   C     C_R   0.174375 0.436631 0.510904 -0.119932
C31   C     C_R   0.826326 0.563428 0.487545 -0.116600
C32   C     C_R   0.833777 0.435396 0.462599 -0.124245
C33   C     C_R   0.166600 0.564483 0.536875 -0.123123
C34   C     C_R   0.666223 0.935396 0.537401 -0.124245
C35   C     C_R   0.073984 0.384717 0.432430 -0.191138
C36   C     C_R   0.333400 0.064483 0.463124 -0.123123
C37   C     C_R   0.325625 0.936631 0.489096 -0.119932
C38   C     C_R   0.673674 0.063428 0.512455 -0.116601
C39   C     C_R   0.193257 0.500126 0.529563 -0.259003
C40   C     C_R   0.807137 0.499796 0.469923 -0.260896
C41   C     C_R   0.692863 0.999796 0.530077 -0.260896
C42   C     C_R   0.306743 0.000126 0.470437 -0.259004
C43   C     C_R   0.098116 0.500887 0.512247 0.084685
C44   C     C_R   0.903090 0.499292 0.484953 0.079775
C45   C     C_R   0.596910 0.999292 0.515047 0.079775
C46   C     C_R   0.928755 0.616866 0.560639 -0.122319
C47   C     C_R   0.401884 0.000887 0.487753 0.084685
C48   C     C_R   0.578352 0.879168 0.574291 -0.174122
C49   C     C_R   0.421211 0.120228 0.425975 -0.181307
C50   C     C_R   0.379988 0.884155 0.556451 -0.174816
C51   C     C_R   0.617593 0.116973 0.449190 -0.132672
C52   C     C_R   0.120012 0.384155 0.443549 -0.174816
C53   C     C_R   0.882407 0.616973 0.550809 -0.132673
C54   C     C_R   0.921648 0.379168 0.425709 -0.174122
C55   C     C_R   0.078789 0.620228 0.574025 -0.181307
C56   C     C_3   0.048672 0.743256 0.055235 0.076831
C57   C     C_R   0.970652 0.380272 0.427722 -0.189950
C58   C     C_3   0.004471 0.745101 0.152558 -0.291657
C59   C     C_3   0.959838 0.691743 0.168188 -0.921758
C60   C     C_3   0.834218 0.066808 0.983714 0.145092
C61   C     C_3   0.859147 0.027794 0.893494 -0.357971
C62   C     C_3   0.827683 0.960140 0.897371 -0.805867
C63   C     C_3   0.936654 0.780452 0.913866 0.095233
C64   C     C_3   0.964224 0.793416 0.812432 -0.345903
C65   C     C_3   0.930618 0.765553 0.768926 -0.710913
C66   C     C_3   0.205098 0.023893 0.907250 0.057636
C67   C     C_3   0.206579 0.958045 0.959788 -0.287029
C68   C     C_R   0.030102 0.619310 0.571183 -0.171459
C69   C     C_3   0.254299 0.910186 0.902450 -0.902075
C70   C     C_3   0.563346 0.280452 0.086134 0.095233
C71   C     C_3   0.535776 0.293415 0.187568 -0.345904
C72   C     C_3   0.569382 0.265553 0.231074 -0.710913
C73   C     C_3   0.294902 0.523893 0.092750 0.057635
C74   C     C_3   0.293421 0.458045 0.040212 -0.287029
C75   C     C_3   0.245701 0.410186 0.097550 -0.902077
C76   C     C_3   0.451328 0.243256 0.944764 0.076832
C77   C     C_3   0.495529 0.245101 0.847442 -0.291659
C78   C     C_3   0.540162 0.191743 0.831811 -0.921757
C79   C     C_R   0.198049 0.729128 0.973129 -0.065999
C80   C     C_3   0.665782 0.566808 0.016286 0.145092
C81   C     C_3   0.640853 0.527794 0.106505 -0.357970
C82   C     C_3   0.672317 0.460140 0.102628 -0.805867
C83   C     C_R   0.770437 0.221686 0.055121 -0.093743
C84   C     C_R   0.786453 0.756668 0.040682 -0.063990
C85   C     C_R   0.704834 0.271506 0.670589 0.840429
C86   C     C_R   0.244058 0.192286 0.929031 -0.074898
C87   C     C_R   0.713547 0.256668 0.959317 -0.063991
C88   C     C_R   0.255941 0.692286 0.070969 -0.074898
C89   C     C_R   0.301951 0.229128 0.026870 -0.066000
C90   C     C_R   0.729563 0.721687 0.944878 -0.093743
C91   C     C_R   0.239972 0.677501 0.939271 0.405108
C92   C     C_R   0.720498 0.188813 0.077733 0.424434
C93   C     C_R   0.737569 0.791917 0.060591 0.436500
C94   C     C_R   0.295033 0.226273 0.885717 0.411862
C95   C     C_R   0.762431 0.291917 0.939409 0.436499
C96   C     C_R   0.705168 0.728156 0.670377 0.811482
C97   C     C_R   0.204967 0.726273 0.114283 0.411861
C98   C     C_R   0.260028 0.177501 0.060729 0.405108
C99   C     C_R   0.779502 0.688813 0.922267 0.424434
C100  C     C_R   0.272402 0.668650 0.981982 -0.266255
C101  C     C_R   0.693256 0.205618 0.028192 -0.285731
C102  C     C_R   0.709070 0.772498 0.013940 -0.262054
C103  C     C_R   0.318157 0.252983 0.938018 -0.257845
C104  C     C_R   0.790930 0.272498 0.986060 -0.262054
C105  C     C_R   0.181843 0.752984 0.061982 -0.257846
C106  C     C_R   0.227598 0.168650 0.018018 -0.266255
C107  C     C_R   0.293910 0.274344 0.329889 0.798937
C108  C     C_R   0.806744 0.705618 0.971808 -0.285731
C109  C     C_R   0.124360 0.799215 0.954106 0.391554
C110  C     C_R   0.847779 0.158778 0.060420 0.436289
C111  C     C_R   0.865938 0.812182 0.047287 0.419079
C112  C     C_R   0.165422 0.131252 0.916288 0.398752
C113  C     C_R   0.634062 0.312182 0.952713 0.419079
C114  C     C_R   0.334578 0.631252 0.083711 0.398752
C115  C     C_R   0.375640 0.299215 0.045894 0.391554
C116  C     C_R   0.652221 0.658778 0.939580 0.436289
C117  C     C_R   0.111212 0.842990 0.898459 -0.164537
C118  C     C_R   0.794831 0.228156 0.329623 0.811482
C119  C     C_R   0.878701 0.143443 0.105876 -0.153311
C120  C     C_R   0.886634 0.845051 0.101082 -0.156280
C121  C     C_R   0.125521 0.134829 0.887184 -0.146446
C122  C     C_R   0.613366 0.345050 0.898918 -0.156280
C123  C     C_R   0.374479 0.634829 0.112816 -0.146447
C124  C     C_R   0.388788 0.342990 0.101541 -0.164537
C125  C     C_R   0.621299 0.643443 0.894124 -0.153311
C126  C     C_R   0.137465 0.833124 0.806008 -0.312902
C127  C     C_R   0.862294 0.169737 0.192253 -0.292339
C128  C     C_R   0.864308 0.828667 0.192286 -0.280861
C129  C     C_R   0.206090 0.774344 0.670111 0.798937
C130  C     C_R   0.136011 0.172453 0.809326 -0.300126
C131  C     C_R   0.635692 0.328668 0.807713 -0.280861
C132  C     C_R   0.363989 0.672453 0.190674 -0.300126
C133  C     C_R   0.362535 0.333124 0.193992 -0.312902
C134  C     C_R   0.637706 0.669736 0.807747 -0.292339
C135  C     C_R   0.182076 0.789138 0.767177 -0.083185
C136  C     C_R   0.815904 0.210684 0.234478 -0.073612
C137  C     C_R   0.819379 0.784645 0.232503 -0.073306
C138  C     C_R   0.182525 0.212798 0.767315 -0.094915
C139  C     C_R   0.680621 0.284645 0.767497 -0.073307
C140  C     C_R   0.204051 0.230368 0.671308 0.845063
C141  C     C_R   0.317475 0.712798 0.232685 -0.094914
C142  C     C_R   0.317924 0.289138 0.232823 -0.083184
C143  C     C_R   0.684096 0.710684 0.765522 -0.073612
C144  C     C_R   0.203945 0.761856 0.821264 -0.183590
C145  C     C_R   0.787002 0.229427 0.187990 -0.175877
C146  C     C_R   0.795504 0.758089 0.181202 -0.179869
C147  C     C_R   0.212404 0.227019 0.813708 -0.145467
C148  C     C_R   0.704496 0.258089 0.818798 -0.179872
C149  C     C_R   0.287596 0.727019 0.186292 -0.145467
C150  C     C_R   0.296055 0.261856 0.178736 -0.183591
C151  C     C_R   0.795166 0.771506 0.329410 0.840430
C152  C     C_R   0.712997 0.729426 0.812010 -0.175877
C153  C     C_R   0.174317 0.761950 0.916289 0.072246
C154  C     C_R   0.802560 0.203556 0.101503 0.078262
C155  C     C_R   0.817394 0.773920 0.089567 0.061912
C156  C     C_R   0.207224 0.183192 0.885842 0.032705
C157  C     C_R   0.682606 0.273920 0.910433 0.061913
C158  C     C_R   0.292776 0.683192 0.114158 0.032705
C159  C     C_R   0.325683 0.261950 0.083710 0.072247
C160  C     C_R   0.697440 0.703556 0.898497 0.078262
C161  C     C_R   0.196750 0.631737 0.527708 0.806026
C162  C     C_R   0.529348 0.880272 0.572278 -0.189950
C163  C     C_R   0.803323 0.368249 0.472222 0.804663
C164  C     C_R   0.799498 0.630891 0.485432 0.807881
C165  C     C_R   0.200743 0.369093 0.513925 0.791716
C166  C     C_R   0.700502 0.130891 0.514567 0.807880
C167  C     C_R   0.299257 0.869093 0.486075 0.791717
C168  C     C_R   0.303250 0.131737 0.472292 0.806027
C169  C     C_R   0.696677 0.868249 0.527778 0.804663
C170  C     C_R   0.927962 0.901024 0.065378 0.802272
C171  C     C_R   0.076604 0.091730 0.930319 0.850192
C172  C     C_R   0.070926 0.899895 0.935231 0.806369
Cu1   Cu    Cu3+1 0.209920 0.785290 0.495070 1.003215
Cu2   Cu    Cu3+1 0.504760 0.500000 0.075850 0.951349
Cu3   Cu    Cu3+1 0.995240 0.000000 0.924150 0.951348
Cu4   Cu    Cu3+1 0.004760 0.000000 0.075850 1.006681
Cu5   Cu    Cu3+1 0.790080 0.214710 0.504930 0.969314
Cu6   Cu    Cu3+1 0.790080 0.785290 0.504930 0.958300
Cu7   Cu    Cu3+1 0.209920 0.214710 0.495070 0.995801
Cu8   Cu    Cu3+1 0.709920 0.285290 0.495070 0.958299
Cu9   Cu    Cu3+1 0.290080 0.714710 0.504930 0.995801
Cu10  Cu    Cu3+1 0.290080 0.285290 0.504930 1.003215
Cu11  Cu    Cu3+1 0.709920 0.714710 0.495070 0.969314
Cu12  Cu    Cu3+1 0.495240 0.500000 0.924150 1.006680
H1    H     H_    0.230087 0.499828 0.535555 0.197268
H2    H     H_    0.854951 0.660532 0.582288 0.205865
H3    H     H_    0.572037 0.195411 0.761032 0.266243
H4    H     H_    0.523967 0.136421 0.844707 0.267715
H5    H     H_    0.708470 0.578109 0.997657 0.188619
H6    H     H_    0.663857 0.530673 0.964863 0.176680
H7    H     H_    0.640584 0.563744 0.159478 0.225099
H8    H     H_    0.598678 0.513081 0.124754 0.241828
H9    H     H_    0.674252 0.424050 0.048756 0.307473
H10   H     H_    0.652155 0.431487 0.167852 0.243949
H11   H     H_    0.713856 0.473980 0.089231 0.261263
H12   H     H_    0.913314 0.333144 0.395266 0.166148
H13   H     H_    0.086711 0.665652 0.605945 0.165472
H14   H     H_    0.505478 0.832640 0.596821 0.142410
H15   H     H_    0.494141 0.166362 0.402429 0.138048
H16   H     H_    0.430305 0.840249 0.604448 0.144350
H17   H     H_    0.566090 0.162694 0.405437 0.161785
H18   H     H_    0.069695 0.340249 0.395552 0.144349
H19   H     H_    0.933909 0.662694 0.594562 0.161785
H20   H     H_    0.994522 0.332640 0.403179 0.142410
H21   H     H_    0.770010 0.500039 0.464872 0.192117
H22   H     H_    0.005859 0.666362 0.597571 0.138048
H23   H     H_    0.150195 0.791395 0.094229 0.244207
H24   H     H_    0.829008 0.297957 0.969821 0.205470
H25   H     H_    0.844243 0.679116 0.956284 0.190843
H26   H     H_    0.190243 0.140580 0.055247 0.239783
H27   H     H_    0.655757 0.179116 0.043716 0.190843
H28   H     H_    0.309757 0.640580 0.944753 0.239783
H29   H     H_    0.349805 0.291395 0.905770 0.244207
H30   H     H_    0.670992 0.797957 0.030179 0.205470
H31   H     H_    0.124043 0.861447 0.763662 0.198077
H32   H     H_    0.729990 0.000039 0.535128 0.192117
H33   H     H_    0.884706 0.156090 0.228195 0.195389
H34   H     H_    0.880820 0.852482 0.233061 0.197168
H35   H     H_    0.109618 0.167117 0.778657 0.197882
H36   H     H_    0.619180 0.352483 0.766939 0.197167
H37   H     H_    0.390382 0.667117 0.221343 0.197882
H38   H     H_    0.375957 0.361447 0.236338 0.198077
H39   H     H_    0.615294 0.656090 0.771805 0.195389
H40   H     H_    0.244042 0.740738 0.788241 0.212069
H41   H     H_    0.751216 0.262216 0.219798 0.186190
H42   H     H_    0.758861 0.726942 0.212685 0.191438
H43   H     H_    0.269913 0.999828 0.464445 0.197269
H44   H     H_    0.241716 0.269122 0.789274 0.220087
H45   H     H_    0.741138 0.226941 0.787315 0.191438
H46   H     H_    0.258284 0.769122 0.210726 0.220087
H47   H     H_    0.255958 0.240738 0.211759 0.212069
H48   H     H_    0.748784 0.762216 0.780202 0.186190
H49   H     H_    0.206302 0.582800 0.780526 0.376034
H50   H     H_    0.714648 0.053407 0.239916 0.391524
H51   H     H_    0.672214 0.866946 0.286195 0.378677
H52   H     H_    0.342223 0.166990 0.652459 0.382291
H53   H     H_    0.827784 0.366945 0.713804 0.378676
H54   H     H_    0.586686 0.833144 0.604734 0.166148
H55   H     H_    0.157777 0.666990 0.347541 0.382291
H56   H     H_    0.293698 0.082800 0.219474 0.376034
H57   H     H_    0.785352 0.553407 0.760083 0.391524
H58   H     H_    0.066756 0.688782 0.039780 0.174760
H59   H     H_    0.029939 0.755107 0.010719 0.103234
H60   H     H_    0.021958 0.732242 0.198308 0.261496
H61   H     H_    0.987010 0.799736 0.168761 0.230306
H62   H     H_    0.941700 0.703684 0.123156 0.247247
H63   H     H_    0.927963 0.695411 0.238968 0.266243
H64   H     H_    0.976033 0.636421 0.155293 0.267715
H65   H     H_    0.413289 0.165652 0.394054 0.165472
H66   H     H_    0.791530 0.078109 0.002343 0.188619
H67   H     H_    0.836142 0.030673 0.035137 0.176680
H68   H     H_    0.859416 0.063744 0.840522 0.225099
H69   H     H_    0.901322 0.013081 0.875246 0.241828
H70   H     H_    0.825748 0.924050 0.951244 0.307472
H71   H     H_    0.847845 0.931487 0.832147 0.243949
H72   H     H_    0.786144 0.973980 0.910768 0.261263
H73   H     H_    0.927219 0.722576 0.927289 0.118855
H74   H     H_    0.965952 0.794570 0.938821 0.088295
H75   H     H_    0.971487 0.851628 0.798959 0.227619
H76   H     H_    0.351946 0.841103 0.588434 0.171201
H77   H     H_    0.003783 0.765800 0.781551 0.166247
H78   H     H_    0.925196 0.706837 0.778470 0.274840
H79   H     H_    0.951526 0.777040 0.695738 0.212386
H80   H     H_    0.890651 0.791974 0.798642 0.283729
H81   H     H_    0.245755 0.048891 0.876118 0.189371
H82   H     H_    0.195242 0.006263 0.853028 0.129861
H83   H     H_    0.209899 0.974833 0.020343 0.281490
H84   H     H_    0.168651 0.927489 0.982312 0.226961
H85   H     H_    0.251658 0.892028 0.841599 0.250677
H86   H     H_    0.254546 0.862830 0.942018 0.261539
H87   H     H_    0.645049 0.160532 0.417712 0.205865
H88   H     H_    0.292615 0.939627 0.881537 0.275145
H89   H     H_    0.572781 0.222576 0.072711 0.118855
H90   H     H_    0.534047 0.294570 0.061178 0.088295
H91   H     H_    0.528513 0.351628 0.201041 0.227619
H92   H     H_    0.496217 0.265800 0.218449 0.166247
H93   H     H_    0.574804 0.206837 0.221530 0.274840
H94   H     H_    0.548474 0.277040 0.304262 0.212386
H95   H     H_    0.609348 0.291974 0.201358 0.283729
H96   H     H_    0.254245 0.548891 0.123882 0.189371
H97   H     H_    0.304758 0.506263 0.146972 0.129861
H98   H     H_    0.148054 0.341103 0.411565 0.171201
H99   H     H_    0.290101 0.474833 0.979657 0.281490
H100  H     H_    0.331349 0.427489 0.017688 0.226961
H101  H     H_    0.248342 0.392028 0.158401 0.250677
H102  H     H_    0.245454 0.362830 0.057982 0.261539
H103  H     H_    0.207385 0.439627 0.118463 0.275146
H104  H     H_    0.433244 0.188782 0.960220 0.174759
H105  H     H_    0.470061 0.255107 0.989280 0.103234
H106  H     H_    0.478042 0.232242 0.801692 0.261496
H107  H     H_    0.512990 0.299736 0.831239 0.230306
H108  H     H_    0.558300 0.203684 0.876844 0.247247
O1    O     O_R   0.255040 0.869590 0.478480 -0.581259
O2    O     O_R   0.817950 0.203450 0.375560 -0.594283
O3    O     O_R   0.817950 0.796550 0.375560 -0.586958
O4    O     O_R   0.182050 0.203450 0.624440 -0.583327
O5    O     O_R   0.682050 0.296550 0.624440 -0.586957
O6    O     O_R   0.317950 0.703450 0.375560 -0.583328
O7    O     O_R   0.317950 0.296550 0.375560 -0.599539
O8    O     O_R   0.682050 0.703450 0.624440 -0.594283
O9    O     O_R   0.250530 0.763330 0.367210 -0.549778
O10   O     O_R   0.749470 0.236670 0.632790 -0.573491
O11   O     O_R   0.749470 0.763330 0.632790 -0.593859
O12   O     O_R   0.744960 0.130410 0.521520 -0.583855
O13   O     O_R   0.250530 0.236670 0.367210 -0.575736
O14   O     O_R   0.750530 0.263330 0.367210 -0.593860
O15   O     O_R   0.249470 0.736670 0.632790 -0.575736
O16   O     O_R   0.249470 0.263330 0.632790 -0.549778
O17   O     O_R   0.750530 0.736670 0.367210 -0.573491
O18   O     O_R   0.177260 0.690030 0.513710 -0.590647
O19   O     O_R   0.822740 0.309970 0.486290 -0.586303
O20   O     O_R   0.822740 0.690030 0.486290 -0.599033
O21   O     O_R   0.177260 0.309970 0.513710 -0.594209
O22   O     O_R   0.677260 0.190030 0.513710 -0.599033
O23   O     O_R   0.744960 0.869590 0.521520 -0.581840
O24   O     O_R   0.322740 0.809970 0.486290 -0.594209
O25   O     O_R   0.322740 0.190030 0.486290 -0.590647
O26   O     O_R   0.677260 0.809970 0.513710 -0.586303
O27   O     O_R   0.051640 0.926880 0.885090 -0.614224
O28   O     O_R   0.948360 0.073120 0.114910 -0.591629
O29   O     O_R   0.948360 0.926880 0.114910 -0.599220
O30   O     O_R   0.051640 0.073120 0.885090 -0.596975
O31   O     O_R   0.551640 0.426880 0.885090 -0.599220
O32   O     O_R   0.448360 0.573120 0.114910 -0.596974
O33   O     O_R   0.448360 0.426880 0.114910 -0.614224
O34   O     O_R   0.255040 0.130410 0.478480 -0.573592
O35   O     O_R   0.551640 0.573120 0.885090 -0.591629
O36   O     O_R   0.940620 0.926560 0.986760 -0.563931
O37   O     O_R   0.059380 0.073440 0.013240 -0.540732
O38   O     O_R   0.059380 0.926560 0.013240 -0.541667
O39   O     O_R   0.940620 0.073440 0.986760 -0.552980
O40   O     O_R   0.440620 0.426560 0.986760 -0.541667
O41   O     O_R   0.559380 0.573440 0.013240 -0.552980
O42   O     O_R   0.559380 0.426560 0.013240 -0.563930
O43   O     O_R   0.440620 0.573440 0.986760 -0.540731
O44   O     O_2   0.297742 0.633011 0.768941 -0.318316
O45   O     O_R   0.755040 0.369590 0.478480 -0.581841
O46   O     O_2   0.257284 0.541394 0.884312 -0.277530
O47   O     O_3   0.194431 0.610011 0.837191 -0.541561
O48   O     O_2   0.661821 0.174761 0.253268 -0.373258
O49   O     O_2   0.648490 0.084103 0.160213 -0.259310
O50   O     O_3   0.734675 0.076812 0.180591 -0.540276
O51   O     O_2   0.756456 0.909352 0.134581 -0.310597
O52   O     O_2   0.671915 0.905755 0.125300 -0.245904
O53   O     O_3   0.680442 0.825911 0.244554 -0.537846
O54   O     O_2   0.337256 0.297232 0.728776 -0.297554
O55   O     O_2   0.393676 0.207893 0.750225 -0.286989
O56   O     O_R   0.244960 0.630410 0.521520 -0.573591
O57   O     O_3   0.317377 0.162168 0.717477 -0.557271
O58   O     O_2   0.743544 0.409352 0.865419 -0.310599
O59   O     O_2   0.828085 0.405755 0.874700 -0.245902
O60   O     O_3   0.819558 0.325911 0.755446 -0.537845
O61   O     O_2   0.162744 0.797232 0.271224 -0.297554
O62   O     O_2   0.106324 0.707893 0.249775 -0.286989
O63   O     O_3   0.182623 0.662168 0.282523 -0.557271
O64   O     O_2   0.202258 0.133011 0.231059 -0.318316
O65   O     O_2   0.242716 0.041394 0.115688 -0.277530
O66   O     O_3   0.305569 0.110011 0.162809 -0.541561
O67   O     O_R   0.244960 0.369590 0.521520 -0.581258
O68   O     O_2   0.838179 0.674761 0.746732 -0.373258
O69   O     O_2   0.851510 0.584103 0.839787 -0.259310
O70   O     O_3   0.765325 0.576812 0.819409 -0.540276
O71   O     O_3   0.088357 0.794235 0.044376 -0.617975
O72   O     O_3   0.862201 0.131614 0.975381 -0.610212
O73   O     O_3   0.889550 0.822735 0.955244 -0.588302
O74   O     O_3   0.165981 0.072458 0.965976 -0.611276
O75   O     O_3   0.610450 0.322735 0.044756 -0.588302
O76   O     O_3   0.334019 0.572458 0.034024 -0.611277
O77   O     O_3   0.411643 0.294235 0.955624 -0.617975
O78   O     O_R   0.755040 0.630410 0.478480 -0.583855
O79   O     O_3   0.637799 0.631614 0.024619 -0.610212
O80   O     O_R   0.182050 0.796550 0.624440 -0.599538
S1    S     S_3+6 0.248772 0.613934 0.854761 -0.010793
S2    S     S_3+6 0.689457 0.129843 0.170224 -0.032888
S3    S     S_3+6 0.711627 0.861772 0.141046 0.003241
S4    S     S_3+6 0.337302 0.224863 0.767694 -0.014978
S5    S     S_3+6 0.788373 0.361772 0.858954 0.003241
S6    S     S_3+6 0.162698 0.724863 0.232306 -0.014977
S7    S     S_3+6 0.251228 0.113934 0.145239 -0.010793
S8    S     S_3+6 0.810543 0.629843 0.829776 -0.032887

loop_
_geom_bond_atom_site_label_1
_geom_bond_atom_site_label_2
_ccdc_geom_bond_type
C63   O73   S    
Cu2   O41   S    
C28   C47   A    
C167  O1    A    
Cu10  O25   S    
Cu4   O38   S    
Cu12  O31   S    
C36   C42   A    
C65   H78   S    
C83   C154  S    
C124  C133  A    
C151  O3    A    
C149  H46   S    
C6    O31   A    
C13   H16   S    
C16   C35   A    
C48   C162  A    
C106  H26   S    
C32   C163  S    
C36   C168  S    
C73   O76   S    
O62   S6    D    
C80   H5    S    
C37   C42   A    
C86   C156  S    
C134  C143  A    
C165  O21   A    
C113  C122  A    
C10   C20   A    
C71   H91   S    
C59   H64   S    
C96   O11   A    
C88   C158  S    
C91   C100  A    
C117  C126  A    
C88   C97   A    
C97   C105  A    
O59   S5    D    
C24   C51   A    
Cu5   O2    S    
C8    C16   A    
C70   H89   S    
Cu7   O4    S    
Cu12  O43   S    
C76   O77   S    
Cu6   O23   S    
H57   O70   S    
C24   H17   S    
C54   H12   S    
C150  C159  A    
C109  C117  A    
C132  H37   S    
C1    O6    A    
C127  C136  A    
C74   C75   S    
C63   H74   S    
Cu2   Cu12  S    
C64   H77   S    
C145  H41   S    
C29   C45   A    
C99   S8    S    
C33   C161  S    
O61   S6    D    
Cu7   O21   S    
Cu4   O29   S    
C166  O12   A    
Cu3   Cu4   S    
C133  H38   S    
O50   S2    S    
C58   H60   S    
C82   H11   S    
H53   O60   S    
C138  C140  S    
C13   C18   A    
C46   H19   S    
Cu9   O24   S    
C110  O72   S    
C74   H99   S    
C65   H80   S    
C130  C138  A    
C128  H34   S    
Cu11  O8    S    
C118  C136  S    
C83   C104  A    
C161  O56   A    
C14   C57   A    
C56   H58   S    
C61   H69   S    
C2    C19   A    
H51   O53   S    
C58   H61   S    
C25   C55   A    
C7    C123  S    
C91   S1    S    
Cu2   O32   S    
C162  H14   S    
C98   C106  A    
O64   S7    D    
C170  O36   A    
C9    C15   A    
C64   C65   S    
C129  O15   A    
C117  C172  S    
C55   H13   S    
C50   H76   S    
C61   H68   S    
C75   H102  S    
C59   H62   S    
C72   H94   S    
C84   C93   A    
O49   S2    D    
O58   S5    D    
Cu6   O3    S    
O55   S4    D    
C113  C157  A    
C111  C155  A    
C11   C18   A    
Cu11  O78   S    
C123  C132  A    
C80   O79   S    
C121  C130  A    
C25   C43   A    
C116  O79   S    
C111  O73   S    
C99   C108  A    
C12   C68   A    
Cu1   O80   S    
C133  C142  A    
O65   S7    D    
C171  O30   A    
C167  O24   A    
Cu7   O34   S    
Cu8   O45   S    
C4    C124  S    
C81   H7    S    
C82   H9    S    
C26   C45   A    
C69   H86   S    
C87   C101  A    
C85   O5    A    
C87   C95   A    
Cu8   O5    S    
C171  O37   A    
C149  C158  A    
C79   C91   A    
C66   C67   S    
C5    O35   A    
C89   C103  A    
H52   O57   S    
C86   C106  A    
C168  O34   A    
C89   C159  S    
C62   H71   S    
H50   O50   S    
Cu8   O14   S    
C139  C148  A    
C2    H15   S    
C38   C41   A    
C77   H106  S    
C166  O22   A    
Cu1   O1    S    
C87   C157  S    
C131  H36   S    
C53   H2    S    
C79   C153  S    
C8    C12   A    
C20   C162  A    
C10   C45   A    
C46   C53   A    
O52   S3    D    
C34   C169  S    
C66   H81   S    
C3    C119  S    
C145  C154  A    
C140  O16   A    
C151  O17   A    
C116  C125  A    
C172  O27   A    
C68   H22   S    
C114  C123  A    
C122  C131  A    
C29   C51   A    
C73   H97   S    
C132  C141  A    
Cu2   O42   S    
C31   C164  S    
Cu5   O19   S    
C118  O2    A    
Cu6   O20   S    
C168  O25   A    
C30   C165  S    
C110  C119  A    
C48   H54   S    
C164  O20   A    
C89   C98   A    
O47   S1    S    
C49   H65   S    
C71   C72   S    
C107  O7    A    
C69   H88   S    
C67   H84   S    
C28   C37   A    
Cu5   O10   S    
C56   C58   S    
C30   C39   A    
C148  C157  A    
C98   S7    S    
C131  C139  A    
C74   H100  S    
C13   C50   A    
C112  C156  A    
O70   S8    S    
C161  O18   A    
C76   H104  S    
C59   H63   S    
C78   H3    S    
C15   C46   A    
C115  O77   S    
C27   C49   A    
C25   C33   A    
C152  H48   S    
C54   C57   A    
C119  C127  A    
C125  C134  A    
C56   O71   S    
C97   S6    S    
C70   H90   S    
C73   C74   S    
C90   C99   A    
C11   C47   A    
C8    C43   A    
C55   C68   A    
Cu3   O39   S    
C37   C167  S    
C77   C78   S    
C101  H27   S    
C11   C19   A    
O60   S5    S    
C116  C160  A    
Cu1   O9    S    
C63   H73   S    
C27   C47   A    
H56   O66   S    
C31   C40   A    
C165  O67   A    
C114  C158  A    
O44   S1    D    
C102  H30   S    
C146  C155  A    
C60   H67   S    
C70   C71   S    
O57   S4    S    
C109  C153  A    
Cu6   Cu11  S    
C64   H75   S    
C26   C48   A    
Cu7   Cu10  S    
H55   O63   S    
C85   O10   A    
C163  O45   A    
Cu1   Cu9   S    
C65   H79   S    
C34   C41   A    
C108  H25   S    
Cu3   O27   S    
C4    O40   A    
Cu4   O28   S    
C70   O75   S    
Cu2   O33   S    
C146  H42   S    
C58   C59   S    
Cu5   O12   S    
C107  O13   A    
C23   C44   A    
C115  C159  A    
C60   C61   S    
O54   S4    D    
C170  O29   A    
C9    C14   A    
O51   S3    D    
C137  C146  A    
Cu3   O30   S    
C12   C15   A    
C75   H101  S    
C71   H92   S    
C3    O28   A    
C147  C156  A    
C88   C100  A    
C169  O26   A    
Cu9   O6    S    
C143  C152  A    
C5    C125  S    
C126  C135  A    
C163  O19   A    
O66   S7    S    
C127  H33   S    
C38   C166  S    
C92   S2    S    
C115  C124  A    
C7    O32   A    
C94   S4    S    
C93   C102  A    
C120  C128  A    
C35   H18   S    
O68   S8    D    
C27   C36   A    
C3    O39   A    
C21   C30   A    
H49   O47   S    
Cu12  O35   S    
C23   C32   A    
C142  C150  A    
Cu9   O56   S    
C57   H20   S    
C96   C143  S    
C120  C170  S    
C109  O71   S    
C4    O33   A    
C84   C108  A    
Cu1   O18   S    
C104  H24   S    
C90   C160  S    
C130  H35   S    
C82   H10   S    
C1    C141  S    
C150  H47   S    
C69   H85   S    
C112  C121  A    
C134  H39   S    
C35   C52   A    
Cu6   O11   S    
Cu7   O13   S    
Cu4   O37   S    
C152  C160  A    
C51   H87   S    
C81   C82   S    
C141  C149  A    
C42   H43   S    
C66   O74   S    
C62   H72   S    
C83   C92   A    
C33   C39   A    
C164  O78   A    
C84   C155  S    
Cu3   O36   S    
C40   H21   S    
C10   C17   A    
C5    O41   A    
Cu9   O15   S    
C113  O75   S    
C79   C105  A    
C7    O43   A    
C72   H93   S    
C96   O8    A    
C144  C153  A    
C86   C94   A    
C21   C43   A    
C28   C50   A    
C26   C34   A    
C90   C102  A    
O53   S3    S    
Cu12  O40   S    
C85   C139  S    
C18   C20   A    
C136  C145  A    
C66   H82   S    
C129  C135  S    
C60   H66   S    
C1    O9    A    
C61   C62   S    
C105  H23   S    
C22   C53   A    
C73   H96   S    
C22   C44   A    
C17   C24   A    
C22   C31   A    
Cu11  O26   S    
C76   C77   S    
C41   H32   S    
C93   S3    S    
C100  H28   S    
C63   C64   S    
O69   S8    D    
C111  C120  A    
C67   C69   S    
C29   C38   A    
C128  C137  A    
C81   H8    S    
C110  C154  A    
C2    C49   A    
C67   H83   S    
C138  C147  A    
Cu5   Cu8   S    
Cu11  O17   S    
C107  C142  S    
C76   H105  S    
O63   S6    S    
C92   C101  A    
O48   S2    D    
C135  C144  A    
C121  C171  S    
C56   H59   S    
C14   C16   A    
C6    O42   A    
C78   H4    S    
C6    C122  S    
C75   H103  S    
Cu10  O67   S    
C95   C104  A    
C169  O23   A    
C23   C54   A    
C77   H107  S    
C62   H70   S    
C103  H29   S    
C9    C44   A    
C80   H6    S    
Cu10  O7    S    
C80   C81   S    
C140  O4    A    
C147  H44   S    
C78   H108  S    
C94   C103  A    
C60   O72   S    
C72   H95   S    
C95   S5    S    
C129  O80   A    
C172  O38   A    
Cu8   O22   S    
C118  O14   A    
C17   C19   A    
Cu10  O16   S    
C112  O74   S    
C32   C40   A    
C144  H40   S    
C126  H31   S    
C52   H98   S    
C39   H1    S    
C114  O76   S    
C137  C151  S    
C148  H45   S    
O46   S1    D    
C21   C52   A    
