data_mof_unit_1840.cif
_audit_creation_date              2012-12-11T15:22:39-0500
_audit_creation_method            fapswitch 2.2
_symmetry_space_group_name_H-M    P1
_symmetry_Int_Tables_number       1
_space_group_crystal_system       triclinic
_cell_length_a                    22.493461
_cell_length_b                    12.981029
_cell_length_c                    26.888264
_cell_angle_alpha                 90.089978
_cell_angle_beta                  90.553238
_cell_angle_gamma                 90.372559
_cell_volume                      7850.51524475

loop_
_atom_site_label
_atom_site_type_symbol
_atom_type_description
_atom_site_fract_x
_atom_site_fract_y
_atom_site_fract_z
_atom_type_partial_charge
C1    C     C_R   0.720639 0.345017 0.178094 0.541158
C2    C     C_R   0.487767 0.261656 0.892754 -0.155750
C3    C     C_R   0.029089 0.620967 0.559581 -0.113561
C4    C     C_R   0.568508 0.109170 0.407128 -0.106914
C5    C     C_R   0.486823 0.076680 0.603183 -0.110841
C6    C     C_R   0.024480 0.572844 0.399779 -0.106027
C7    C     C_R   0.015386 0.616368 0.610068 -0.127635
C8    C     C_R   0.722985 0.022051 0.380313 0.022281
C9    C     C_R   0.266063 0.983082 0.623667 0.046011
C10   C     C_R   0.234741 0.481562 0.376098 0.042569
C11   C     C_R   0.767279 0.482939 0.623718 0.047192
C12   C     C_R   0.722765 0.919315 0.396205 -0.111284
C13   C     C_R   0.032478 0.754779 0.097893 -0.152204
C14   C     C_R   0.263073 0.883261 0.604174 -0.136925
C15   C     C_R   0.237787 0.381519 0.395141 -0.132911
C16   C     C_R   0.770070 0.382759 0.604754 -0.136362
C17   C     C_R   0.723357 0.897492 0.446767 -0.067300
C18   C     C_R   0.263715 0.869641 0.552661 -0.100971
C19   C     C_R   0.238934 0.367320 0.446646 -0.075044
C20   C     C_R   0.773861 0.368430 0.553472 -0.100147
C21   C     C_R   0.722301 0.978263 0.481360 0.094356
C22   C     C_R   0.269568 0.955358 0.521369 0.102543
C23   C     C_R   0.235190 0.453003 0.478463 0.102948
C24   C     C_R   0.987009 0.761826 0.892902 -0.156199
C25   C     C_R   0.777463 0.454011 0.521905 0.109640
C26   C     C_R   0.721081 0.080868 0.465299 -0.108759
C27   C     C_R   0.273955 0.054574 0.541186 -0.066449
C28   C     C_R   0.230241 0.552254 0.459006 -0.082623
C29   C     C_R   0.777979 0.553808 0.541365 -0.067907
C30   C     C_R   0.722529 0.102718 0.414824 -0.156286
C31   C     C_R   0.271828 0.068379 0.592108 -0.102286
C32   C     C_R   0.230647 0.566490 0.408116 -0.104837
C33   C     C_R   0.772163 0.568189 0.592027 -0.104602
C34   C     C_R   0.787342 0.984960 0.555502 -0.052154
C35   C     C_R   0.528401 0.262124 0.045773 0.008437
C36   C     C_R   0.209508 0.973643 0.445243 -0.051684
C37   C     C_R   0.289597 0.482184 0.557497 -0.049435
C38   C     C_R   0.711160 0.463023 0.449343 -0.054873
C39   C     C_R   0.721562 0.349981 0.321352 0.564748
C40   C     C_R   0.277569 0.351455 0.679575 0.565218
C41   C     C_R   0.222122 0.851307 0.320670 0.566733
C42   C     C_R   0.778120 0.851091 0.679124 0.563060
C43   C     C_R   0.797469 0.968186 0.606461 -0.053859
C44   C     C_R   0.202774 0.966013 0.393544 -0.041658
C45   C     C_R   0.293725 0.473575 0.609466 -0.040176
C46   C     C_R   0.507994 0.266269 0.942117 0.003197
C47   C     C_R   0.699832 0.451841 0.398450 -0.051936
C48   C     C_R   0.699088 0.886585 0.613705 -0.036604
C49   C     C_R   0.300321 0.884440 0.387542 -0.043751
C50   C     C_R   0.200934 0.374430 0.610749 -0.044690
C51   C     C_R   0.801138 0.387675 0.386308 -0.038154
C52   C     C_R   0.686316 0.912557 0.563677 -0.016601
C53   C     C_R   0.311461 0.909142 0.438109 -0.018902
C54   C     C_R   0.191652 0.396824 0.559756 -0.023093
C55   C     C_R   0.814864 0.411097 0.436627 -0.013664
C56   C     C_R   0.732022 0.956030 0.534200 -0.002753
C57   C     C_R   0.027663 0.761547 0.045821 0.008482
C58   C     C_R   0.263553 0.943687 0.467478 -0.000392
C59   C     C_R   0.239253 0.440742 0.532552 -0.001658
C60   C     C_R   0.768164 0.440889 0.468406 0.000071
C61   C     C_R   0.756642 0.906154 0.633762 -0.005681
C62   C     C_R   0.243663 0.905426 0.366365 -0.002012
C63   C     C_R   0.255105 0.404640 0.634225 -0.000546
C64   C     C_R   0.742193 0.401168 0.368102 -0.002384
C65   C     C_R   0.553582 0.158473 0.321017 0.532645
C66   C     C_R   0.445590 0.158746 0.678356 0.542879
C67   C     C_R   0.054066 0.658086 0.321540 0.548194
C68   C     C_R   0.007207 0.766101 0.942234 0.003023
C69   C     C_R   0.945631 0.659100 0.678592 0.533730
C70   C     C_R   0.719463 0.046933 0.327987 0.548614
C71   C     C_R   0.268595 0.003627 0.676500 0.522934
C72   C     C_R   0.231492 0.503046 0.323371 0.526308
C73   C     C_R   0.768790 0.503869 0.676457 0.526327
C74   C     C_R   0.547872 0.069729 0.090822 -0.022884
C75   C     C_R   0.516412 0.080346 0.887220 -0.031592
C76   C     C_R   0.047303 0.569238 0.090813 -0.022853
C77   C     C_R   0.017755 0.581823 0.886392 -0.030305
C78   C     C_R   0.555508 0.081343 0.039291 0.004479
C79   C     C_R   0.540089 0.174621 0.016474 0.045570
C80   C     C_R   0.539629 0.086800 0.935968 0.004151
C81   C     C_R   0.054550 0.580659 0.039197 0.004627
C82   C     C_R   0.039454 0.586877 0.935663 0.004257
C83   C     C_R   0.566787 0.001585 0.958479 -0.143074
C84   C     C_R   0.573931 0.998350 0.009538 -0.134481
C85   C     C_R   0.065969 0.501157 0.958216 -0.143638
C86   C     C_R   0.072711 0.497550 0.009343 -0.134476
C87   C     C_R   0.512219 0.977926 0.862429 0.045853
C88   C     C_R   0.473640 0.902856 0.882040 -0.084713
C89   C     C_R   0.459287 0.814775 0.854562 -0.097585
C90   C     C_R   0.530962 0.177018 0.964496 0.046949
C91   C     C_R   0.482385 0.801829 0.807031 -0.109157
C92   C     C_R   0.521675 0.875083 0.787552 -0.104118
C93   C     C_R   0.537993 0.961640 0.815698 -0.064220
C94   C     C_R   0.534570 0.962939 0.107847 0.048758
C95   C     C_R   0.580565 0.899810 0.125091 -0.069127
C96   C     C_R   0.574249 0.792744 0.125964 -0.132890
C97   C     C_R   0.522915 0.746939 0.106384 -0.108329
C98   C     C_R   0.477447 0.808568 0.087428 -0.105468
C99   C     C_R   0.482069 0.915832 0.089911 -0.096772
C100  C     C_R   0.017044 0.481879 0.859256 0.044352
C101  C     C_R   0.039212 0.674026 0.016452 0.045823
C102  C     C_R   0.978329 0.403296 0.875216 -0.080924
C103  C     C_R   0.963728 0.321492 0.843546 -0.095824
C104  C     C_R   0.987023 0.318208 0.795659 -0.100761
C105  C     C_R   0.027628 0.393452 0.780280 -0.098580
C106  C     C_R   0.043713 0.474082 0.812345 -0.075756
C107  C     C_R   0.034443 0.462441 0.108040 0.048876
C108  C     C_R   0.080740 0.399979 0.125256 -0.069851
C109  C     C_R   0.074825 0.292862 0.126407 -0.133955
C110  C     C_R   0.023601 0.246318 0.107034 -0.108247
C111  C     C_R   0.977861 0.307282 0.088022 -0.105832
C112  C     C_R   0.278689 0.345294 0.821856 0.537774
C113  C     C_R   0.030241 0.676695 0.964460 0.047026
C114  C     C_R   0.982060 0.414608 0.090325 -0.097002
C115  C     C_R   0.835517 0.029273 0.523732 0.029419
C116  C     C_R   0.857860 0.129184 0.532290 -0.092166
C117  C     C_R   0.903603 0.168748 0.503027 -0.125227
C118  C     C_R   0.926282 0.110462 0.463947 -0.120005
C119  C     C_R   0.904327 0.011265 0.454945 -0.107770
C120  C     C_R   0.859748 0.970233 0.485053 -0.092603
C121  C     C_R   0.158252 0.004833 0.476448 0.023982
C122  C     C_R   0.137466 0.106642 0.476210 -0.086560
C123  C     C_R   0.085678 0.131696 0.501780 -0.118213
C124  C     C_R   0.511634 0.354114 0.022276 -0.137159
C125  C     C_R   0.055542 0.056573 0.529017 -0.121155
C126  C     C_R   0.076642 0.955695 0.530345 -0.119224
C127  C     C_R   0.127564 0.929596 0.503881 -0.092509
C128  C     C_R   0.339681 0.528369 0.528918 0.027265
C129  C     C_R   0.355696 0.632521 0.534771 -0.094804
C130  C     C_R   0.405979 0.672004 0.511185 -0.126653
C131  C     C_R   0.439192 0.609371 0.479829 -0.115469
C132  C     C_R   0.423037 0.506282 0.473092 -0.115645
C133  C     C_R   0.373777 0.465568 0.497744 -0.099700
C134  C     C_R   0.662346 0.493881 0.483374 0.027973
C135  C     C_R   0.500913 0.355915 0.970831 -0.139947
C136  C     C_R   0.640825 0.595253 0.483588 -0.082255
C137  C     C_R   0.595330 0.622858 0.515994 -0.113830
C138  C     C_R   0.572260 0.550698 0.549211 -0.115006
C139  C     C_R   0.594106 0.450308 0.549702 -0.111582
C140  C     C_R   0.638057 0.421236 0.516245 -0.089694
C141  C     C_R   0.849581 0.019038 0.631299 0.066643
C142  C     C_R   0.908203 0.991646 0.619547 -0.063865
C143  C     C_R   0.956265 0.038737 0.644007 -0.112370
C144  C     C_R   0.946377 0.114693 0.679739 -0.106586
C145  C     C_R   0.888321 0.143245 0.691371 -0.109680
C146  C     C_R   0.010788 0.853572 0.022446 -0.136948
C147  C     C_R   0.840047 0.095411 0.667416 -0.078216
C148  C     C_R   0.154871 0.025305 0.368039 0.069844
C149  C     C_R   0.094560 0.002223 0.375728 -0.056884
C150  C     C_R   0.050294 0.059940 0.352143 -0.119166
C151  C     C_R   0.065913 0.140842 0.320516 -0.104448
C152  C     C_R   0.125819 0.163890 0.312348 -0.108227
C153  C     C_R   0.170189 0.106226 0.335892 -0.085935
C154  C     C_R   0.334711 0.542393 0.638302 0.066564
C155  C     C_R   0.396730 0.537358 0.632916 -0.057658
C156  C     C_R   0.433736 0.609119 0.656875 -0.121257
C157  C     C_R   0.999943 0.855527 0.971053 -0.139651
C158  C     C_R   0.409187 0.686204 0.686416 -0.103798
C159  C     C_R   0.347755 0.689937 0.693241 -0.114024
C160  C     C_R   0.310614 0.618031 0.669486 -0.100800
C161  C     C_R   0.644111 0.496210 0.377661 0.069963
C162  C     C_R   0.588874 0.447927 0.385322 -0.047961
C163  C     C_R   0.537076 0.490779 0.365215 -0.106675
C164  C     C_R   0.539963 0.582307 0.338020 -0.110501
C165  C     C_R   0.594752 0.630926 0.330533 -0.109919
C166  C     C_R   0.646744 0.587935 0.350127 -0.079915
C167  C     C_2   0.624377 0.897911 0.543874 0.164253
C168  C     C_R   0.734473 0.983097 0.126103 0.017091
C169  C     C_2   0.373174 0.902815 0.459087 0.209560
C170  C     C_2   0.131484 0.379020 0.536558 0.177485
C171  C     C_2   0.877921 0.408121 0.454969 0.203045
C172  C     C_2   0.651582 0.840476 0.644903 0.218338
C173  C     C_2   0.348601 0.841961 0.356448 0.233404
C174  C     C_2   0.153363 0.322373 0.639538 0.220313
C175  C     C_2   0.848951 0.354376 0.352214 0.231060
C176  C     C_R   0.670331 0.753638 0.879247 0.041370
C177  C     C_R   0.638684 0.761940 0.834106 -0.031822
C178  C     C_R   0.602438 0.680811 0.817325 -0.070736
C179  C     C_R   0.264393 0.959009 0.870326 0.035312
C180  C     C_R   0.591437 0.596427 0.847982 -0.102965
C181  C     C_R   0.618961 0.590701 0.894543 -0.113357
C182  C     C_R   0.659822 0.666527 0.909365 -0.091259
C183  C     C_R   0.341075 0.805628 0.136067 0.030653
C184  C     C_R   0.368721 0.867657 0.172536 -0.062435
C185  C     C_R   0.411708 0.826001 0.204452 -0.056140
C186  C     C_R   0.426660 0.721957 0.200763 -0.090899
C187  C     C_R   0.399580 0.659907 0.164420 -0.094168
C188  C     C_R   0.357329 0.701706 0.131848 -0.077331
C189  C     C_R   0.169535 0.255293 0.878504 0.041692
C190  C     C_R   0.234587 0.482769 0.126145 0.019787
C191  C     C_R   0.138050 0.265342 0.833375 -0.031793
C192  C     C_R   0.101356 0.185328 0.816044 -0.071845
C193  C     C_R   0.090113 0.099982 0.846027 -0.104479
C194  C     C_R   0.117677 0.092337 0.892514 -0.113301
C195  C     C_R   0.158662 0.167425 0.907995 -0.091005
C196  C     C_R   0.840802 0.303295 0.135770 0.029656
C197  C     C_R   0.868634 0.364013 0.172663 -0.056716
C198  C     C_R   0.911434 0.320990 0.204332 -0.060026
C199  C     C_R   0.926070 0.216934 0.199916 -0.095061
C200  C     C_R   0.898874 0.156235 0.163113 -0.092159
C201  C     C_R   0.764444 0.458655 0.870280 0.035225
C202  C     C_R   0.856772 0.199369 0.130831 -0.078929
C203  C     C_R   0.726924 0.067456 0.094103 -0.127642
C204  C     C_R   0.220634 0.845090 0.178122 0.536282
C205  C     C_R   0.313796 0.971495 0.902184 -0.124000
C206  C     C_R   0.227849 0.567235 0.094094 -0.126414
C207  C     C_R   0.813898 0.470858 0.902128 -0.125041
C208  C     C_R   0.729214 0.054260 0.042984 -0.129088
C209  C     C_R   0.310340 0.944250 0.951798 -0.132764
C210  C     C_R   0.229943 0.553816 0.042992 -0.129309
C211  C     C_R   0.810427 0.443483 0.951728 -0.132278
C212  C     C_R   0.737422 0.955832 0.023369 0.026064
C213  C     C_R   0.257337 0.903913 0.970497 0.028448
C214  C     C_R   0.237192 0.455105 0.023415 0.026591
C215  C     C_R   0.778718 0.845194 0.821898 0.540594
C216  C     C_R   0.757403 0.403181 0.970403 0.028157
C217  C     C_R   0.743037 0.870520 0.055358 -0.120045
C218  C     C_R   0.208899 0.885142 0.938009 -0.128286
C219  C     C_R   0.241971 0.369710 0.055449 -0.119615
C220  C     C_R   0.709014 0.384308 0.937892 -0.128214
C221  C     C_R   0.557487 0.155988 0.175176 0.543258
C222  C     C_R   0.448128 0.157852 0.821652 0.537238
C223  C     C_R   0.057496 0.655917 0.175162 0.544040
C224  C     C_R   0.948236 0.658008 0.821541 0.536939
C225  C     C_R   0.741682 0.884164 0.106824 -0.157393
C226  C     C_R   0.486931 0.167366 0.866559 -0.021277
C227  C     C_R   0.212474 0.912726 0.887894 -0.134476
C228  C     C_R   0.240774 0.383549 0.106915 -0.157955
C229  C     C_R   0.712595 0.412026 0.887787 -0.133342
C230  C     C_R   0.703014 0.867619 0.947327 -0.124476
C231  C     C_R   0.297089 0.852907 0.054042 -0.132828
C232  C     C_R   0.202753 0.367451 0.947152 -0.124250
C233  C     C_R   0.796977 0.351814 0.053909 -0.132690
C234  C     C_R   0.710164 0.838597 0.897594 -0.022537
C235  C     C_R   0.291386 0.847144 0.105784 -0.029382
C236  C     C_R   0.209853 0.339062 0.897328 -0.022154
C237  C     C_R   0.541674 0.159178 0.121296 -0.015388
C238  C     C_R   0.791317 0.346100 0.105654 -0.029631
C239  C     C_R   0.788858 0.969205 0.891292 -0.139166
C240  C     C_R   0.193451 0.925239 0.098132 -0.141426
C241  C     C_R   0.289132 0.468654 0.891484 -0.139444
C242  C     C_R   0.693674 0.425371 0.098082 -0.141208
C243  C     C_R   0.780730 0.995731 0.940891 -0.122932
C244  C     C_R   0.200002 0.931930 0.047109 -0.129682
C245  C     C_R   0.280967 0.494798 0.941115 -0.123207
C246  C     C_R   0.700178 0.431853 0.047034 -0.129366
C247  C     C_R   0.739773 0.941280 0.969495 0.022823
C248  C     C_R   0.987161 0.668108 0.866320 -0.021243
C249  C     C_R   0.250893 0.893207 0.024521 0.018447
C250  C     C_R   0.239724 0.440553 0.969541 0.023103
C251  C     C_R   0.750914 0.392580 0.024424 0.018291
C252  C     C_R   0.756471 0.887323 0.869477 0.009473
C253  C     C_R   0.237527 0.878923 0.127867 0.007354
C254  C     C_R   0.256454 0.387421 0.869431 0.009053
C255  C     C_R   0.737612 0.378628 0.127806 0.007036
C256  C     C_R   0.534666 0.164209 0.372461 0.031213
C257  C     C_R   0.471827 0.166847 0.628828 0.023682
C258  C     C_R   0.026825 0.663137 0.370906 0.023065
C259  C     C_R   0.041429 0.658834 0.121305 -0.014611
C260  C     C_R   0.966150 0.669915 0.627719 0.037892
C261  C     C_R   0.487805 0.226138 0.388362 -0.142501
C262  C     C_R   0.471353 0.261243 0.603449 -0.140398
C263  C     C_R   0.012236 0.757640 0.392656 -0.138218
C264  C     C_R   0.930608 0.726865 0.594789 -0.121385
C265  C     C_R   0.474403 0.230336 0.439096 -0.109819
C266  C     C_R   0.482229 0.264677 0.552527 -0.142088
C267  C     C_R   0.000686 0.762952 0.443541 -0.138276
C268  C     C_R   0.944114 0.731376 0.544658 -0.113893
C269  C     C_R   0.731112 0.003144 0.179080 0.532567
C270  C     C_R   0.532907 0.255247 0.097878 -0.152447
C271  C     C_R   0.268928 0.001352 0.820308 0.533920
C272  C     C_R   0.231135 0.503069 0.179101 0.521451
C273  C     C_R   0.768939 0.501310 0.820305 0.535290
C274  C     C_R   0.509291 0.175636 0.473699 0.032634
C275  C     C_R   0.495473 0.173958 0.526861 0.038953
C276  C     C_R   0.002923 0.673390 0.472781 0.034274
C277  C     C_R   0.992932 0.677499 0.526558 0.042378
C278  C     C_R   0.557174 0.117284 0.457232 -0.117387
C279  C     C_R   0.498044 0.080192 0.552646 -0.083141
C280  C     C_R   0.013005 0.578135 0.450228 -0.072548
Cr1   Cr    Cr6+3 0.756570 0.170940 0.251190 1.048925
Cr2   Cr    Cr6+3 0.374010 0.036240 0.749520 1.018125
Cr3   Cr    Cr6+3 0.125990 0.536240 0.250480 1.008244
Cr4   Cr    Cr6+3 0.874010 0.536240 0.749520 1.023889
Cr5   Cr    Cr6+3 0.243430 0.170940 0.748810 1.044851
Cr6   Cr    Cr6+3 0.256570 0.670940 0.251190 1.054209
Cr7   Cr    Cr6+3 0.743430 0.670940 0.748810 1.042726
Cr8   Cr    Cr6+3 0.623740 0.299110 0.249580 1.011922
Cr9   Cr    Cr6+3 0.376260 0.299110 0.750420 1.012795
Cr10  Cr    Cr6+3 0.123740 0.799110 0.249580 1.017135
Cr11  Cr    Cr6+3 0.876260 0.799110 0.750420 1.015475
Cr12  Cr    Cr6+3 0.625990 0.036240 0.250480 1.007273
H1    H     H_    0.823397 0.008849 0.870882 0.127734
H2    H     H_    0.174541 0.900856 0.863395 0.113742
H3    H     H_    0.015385 0.076398 0.548510 0.122625
H4    H     H_    0.052923 0.897347 0.551112 0.114923
H5    H     H_    0.142432 0.850392 0.503903 0.106988
H6    H     H_    0.331115 0.681458 0.559606 0.119895
H7    H     H_    0.419898 0.750567 0.518042 0.150535
H8    H     H_    0.477900 0.640270 0.461308 0.125926
H9    H     H_    0.449408 0.457507 0.449544 0.101765
H10   H     H_    0.362700 0.384769 0.493272 0.101416
H11   H     H_    0.659062 0.652386 0.458615 0.121242
H12   H     H_    0.577786 0.700063 0.515459 0.154268
H13   H     H_    0.244577 0.317799 0.131456 0.100322
H14   H     H_    0.537410 0.572573 0.574488 0.105078
H15   H     H_    0.577050 0.395008 0.576054 0.114422
H16   H     H_    0.653752 0.342531 0.516356 0.100743
H17   H     H_    0.916713 0.935295 0.590988 0.100931
H18   H     H_    0.001242 0.016689 0.635106 0.103075
H19   H     H_    0.983813 0.151457 0.698220 0.101116
H20   H     H_    0.880679 0.202288 0.719003 0.103509
H21   H     H_    0.795256 0.117920 0.676843 0.100935
H22   H     H_    0.082157 0.940613 0.400561 0.111170
H23   H     H_    0.003915 0.042172 0.358521 0.094035
H24   H     H_    0.674675 0.400147 0.863275 0.114492
H25   H     H_    0.031625 0.185740 0.302398 0.102826
H26   H     H_    0.137882 0.226617 0.287876 0.109264
H27   H     H_    0.216455 0.125108 0.329469 0.101933
H28   H     H_    0.416019 0.481095 0.608412 0.102108
H29   H     H_    0.481347 0.606287 0.651784 0.093742
H30   H     H_    0.437730 0.743693 0.703523 0.104931
H31   H     H_    0.328831 0.749603 0.716256 0.116031
H32   H     H_    0.262942 0.623269 0.674103 0.102244
H33   H     H_    0.586224 0.377134 0.406453 0.113700
H34   H     H_    0.494654 0.453053 0.370472 0.095395
H35   H     H_    0.461333 0.268932 0.361762 0.103179
H36   H     H_    0.499756 0.615428 0.322657 0.107733
H37   H     H_    0.596949 0.701806 0.309460 0.112490
H38   H     H_    0.689001 0.626189 0.344106 0.104462
H39   H     H_    0.587138 0.894689 0.569118 0.091752
H40   H     H_    0.407445 0.860338 0.440104 0.096015
H41   H     H_    0.095278 0.347674 0.558146 0.095780
H42   H     H_    0.912080 0.369975 0.433840 0.083295
H43   H     H_    0.622264 0.781366 0.629689 0.085520
H44   H     H_    0.377048 0.781338 0.370599 0.083037
H45   H     H_    0.129452 0.256901 0.623873 0.090344
H46   H     H_    0.460432 0.331432 0.622714 0.121441
H47   H     H_    0.880740 0.296417 0.363685 0.079160
H48   H     H_    0.643760 0.829686 0.811060 0.126377
H49   H     H_    0.581792 0.684312 0.780881 0.096090
H50   H     H_    0.561594 0.535590 0.835690 0.097171
H51   H     H_    0.609737 0.526060 0.918700 0.103562
H52   H     H_    0.682728 0.657546 0.944693 0.102593
H53   H     H_    0.356501 0.947791 0.176507 0.105496
H54   H     H_    0.433139 0.874210 0.232266 0.151682
H55   H     H_    0.459666 0.689695 0.225702 0.097678
H56   H     H_    0.411618 0.579597 0.161246 0.101777
H57   H     H_    0.011796 0.827255 0.370645 0.114109
H58   H     H_    0.337173 0.653066 0.103652 0.108253
H59   H     H_    0.143782 0.333449 0.810705 0.122749
H60   H     H_    0.080919 0.190073 0.779565 0.100699
H61   H     H_    0.060120 0.039802 0.833234 0.097704
H62   H     H_    0.108326 0.026870 0.916118 0.103407
H63   H     H_    0.181487 0.157176 0.943276 0.102759
H64   H     H_    0.856683 0.444149 0.177167 0.111046
H65   H     H_    0.933004 0.368144 0.232493 0.148020
H66   H     H_    0.958955 0.183619 0.224617 0.094722
H67   H     H_    0.910697 0.075933 0.159367 0.103554
H68   H     H_    0.890487 0.763845 0.607581 0.117952
H69   H     H_    0.836546 0.151760 0.102261 0.108608
H70   H     H_    0.507125 0.008857 0.533319 0.155666
H71   H     H_    0.585782 0.077438 0.483266 0.158345
H72   H     H_    0.067142 0.579020 0.546094 0.137162
H73   H     H_    0.152004 0.951386 0.113813 0.132606
H74   H     H_    0.012878 0.507764 0.471825 0.173188
H75   H     H_    0.487063 0.002454 0.621544 0.135842
H76   H     H_    0.604693 0.060904 0.395354 0.147203
H77   H     H_    0.042394 0.570362 0.635010 0.124809
H78   H     H_    0.034767 0.498185 0.384136 0.149222
H79   H     H_    0.436459 0.274091 0.451189 0.102785
H80   H     H_    0.480710 0.337855 0.533330 0.113295
H81   H     H_    0.992041 0.837067 0.460381 0.108745
H82   H     H_    0.914825 0.772802 0.519697 0.103730
H83   H     H_    0.722979 0.856599 0.369576 0.118526
H84   H     H_    0.323901 0.508055 0.871236 0.128481
H85   H     H_    0.259034 0.817224 0.628466 0.095838
H86   H     H_    0.240021 0.315668 0.370470 0.093460
H87   H     H_    0.767912 0.316725 0.629264 0.094809
H88   H     H_    0.578614 0.933825 0.937357 0.125924
H89   H     H_    0.591286 0.928295 0.025675 0.130548
H90   H     H_    0.077799 0.433456 0.937062 0.124556
H91   H     H_    0.089830 0.427269 0.025429 0.130486
H92   H     H_    0.725791 0.818192 0.459087 0.107643
H93   H     H_    0.257670 0.793491 0.536951 0.087029
H94   H     H_    0.243165 0.290448 0.461787 0.093436
H95   H     H_    0.652348 0.451993 0.113797 0.132408
H96   H     H_    0.770791 0.291682 0.538019 0.089996
H97   H     H_    0.721085 0.143543 0.491935 0.099552
H98   H     H_    0.277557 0.121108 0.517072 0.104340
H99   H     H_    0.227022 0.618568 0.483354 0.097705
H100  H     H_    0.779844 0.620196 0.517015 0.104173
H101  H     H_    0.721910 0.182200 0.402650 0.097961
H102  H     H_    0.275321 0.145832 0.607070 0.114232
H103  H     H_    0.226965 0.644064 0.393540 0.113970
H104  H     H_    0.772252 0.646058 0.606691 0.109901
H105  H     H_    0.466826 0.329035 0.876714 0.130504
H106  H     H_    0.749131 0.793805 0.040406 0.113902
H107  H     H_    0.528056 0.324180 0.120247 0.119706
H108  H     H_    0.965528 0.828940 0.877105 0.131099
H109  H     H_    0.027765 0.823756 0.120256 0.119889
H110  H     H_    0.484476 0.426033 0.953926 0.104234
H111  H     H_    0.503829 0.423082 0.043939 0.100174
H112  H     H_    0.983409 0.925669 0.954236 0.104189
H113  H     H_    0.003010 0.922465 0.044175 0.100173
H114  H     H_    0.719407 0.143914 0.108907 0.127605
H115  H     H_    0.354320 0.007827 0.889300 0.137698
H116  H     H_    0.221021 0.643942 0.108842 0.128163
H117  H     H_    0.167776 0.852549 0.951791 0.114600
H118  H     H_    0.854490 0.507025 0.889263 0.136707
H119  H     H_    0.669360 0.830536 0.969833 0.096013
H120  H     H_    0.337344 0.825434 0.036791 0.092217
H121  H     H_    0.168898 0.330471 0.969488 0.095732
H122  H     H_    0.837096 0.323840 0.036616 0.092553
H123  H     H_    0.723773 0.120294 0.018790 0.122924
H124  H     H_    0.347947 0.960681 0.976078 0.102939
H125  H     H_    0.225144 0.619963 0.018776 0.122307
H126  H     H_    0.848040 0.459785 0.976023 0.104073
H127  H     H_    0.808827 0.054588 0.957674 0.106688
H128  H     H_    0.247342 0.292786 0.040542 0.113490
H129  H     H_    0.164905 0.966991 0.025186 0.106030
H130  H     H_    0.309247 0.553200 0.958058 0.106368
H131  H     H_    0.665181 0.467199 0.025107 0.105952
H132  H     H_    0.452840 0.914717 0.917748 0.095763
H133  H     H_    0.429107 0.757795 0.869618 0.100622
H134  H     H_    0.470726 0.733785 0.785789 0.090964
H135  H     H_    0.539709 0.864430 0.750748 0.135699
H136  H     H_    0.567196 0.019222 0.799809 0.109784
H137  H     H_    0.622821 0.933080 0.133475 0.155681
H138  H     H_    0.610575 0.745262 0.138978 0.105327
H139  H     H_    0.667904 0.351642 0.951663 0.114643
H140  H     H_    0.518966 0.663853 0.104750 0.100836
H141  H     H_    0.439274 0.773252 0.069510 0.103167
H142  H     H_    0.447216 0.962030 0.073285 0.105263
H143  H     H_    0.956611 0.408892 0.910897 0.095298
H144  H     H_    0.932731 0.262613 0.855483 0.097974
H145  H     H_    0.974314 0.256342 0.770771 0.083935
H146  H     H_    0.045978 0.390006 0.743288 0.152147
H147  H     H_    0.072898 0.534656 0.799199 0.102147
H148  H     H_    0.122888 0.433852 0.133396 0.156473
H149  H     H_    0.111373 0.245913 0.139439 0.103612
H150  H     H_    0.746180 0.818483 0.131326 0.103964
H151  H     H_    0.019965 0.163181 0.105565 0.101143
H152  H     H_    0.939823 0.271421 0.070166 0.103848
H153  H     H_    0.946979 0.460275 0.073686 0.105673
H154  H     H_    0.841057 0.175197 0.562514 0.116755
H155  H     H_    0.921887 0.244236 0.511017 0.147479
H156  H     H_    0.961392 0.141658 0.441084 0.111224
H157  H     H_    0.922122 0.965899 0.424824 0.103119
H158  H     H_    0.844007 0.892501 0.478171 0.097987
H159  H     H_    0.159993 0.165274 0.454748 0.126892
H160  H     H_    0.068078 0.208796 0.499727 0.140572
O1    O     O_R   0.769900 0.064540 0.196060 -0.502805
O2    O     O_R   0.433710 0.069580 0.694600 -0.515625
O3    O     O_R   0.066290 0.569580 0.305400 -0.516680
O4    O     O_R   0.933710 0.569580 0.694600 -0.502690
O5    O     O_R   0.680760 0.993330 0.302620 -0.505588
O6    O     O_R   0.319240 0.993330 0.697380 -0.497797
O7    O     O_R   0.180760 0.493330 0.302620 -0.497240
O8    O     O_R   0.819240 0.493330 0.697380 -0.494490
O9    O     O_3   0.668770 0.168760 0.250420 -0.275139
O10   O     O_3   0.331230 0.168760 0.749580 -0.248851
O11   O     O_3   0.168770 0.668760 0.250420 -0.253192
O12   O     O_R   0.230100 0.064540 0.803940 -0.498924
O13   O     O_3   0.831230 0.668760 0.749580 -0.251997
O14   O     O_R   0.750800 0.274080 0.199250 -0.478961
O15   O     O_R   0.249200 0.274080 0.800750 -0.494840
O16   O     O_R   0.250800 0.774080 0.199250 -0.480265
O17   O     O_R   0.749200 0.774080 0.800750 -0.493280
O18   O     O_R   0.669990 0.371670 0.194150 -0.524679
O19   O     O_R   0.330010 0.371670 0.805850 -0.521306
O20   O     O_R   0.169990 0.871670 0.194150 -0.527239
O21   O     O_R   0.830010 0.871670 0.805850 -0.521352
O22   O     O_R   0.574600 0.238480 0.197800 -0.501177
O23   O     O_R   0.269900 0.564540 0.196060 -0.507267
O24   O     O_R   0.425400 0.238480 0.802200 -0.505731
O25   O     O_R   0.074600 0.738480 0.197800 -0.502320
O26   O     O_R   0.925400 0.738480 0.802200 -0.506143
O27   O     O_R   0.566130 0.068680 0.194240 -0.512856
O28   O     O_R   0.433870 0.068680 0.805760 -0.500150
O29   O     O_R   0.066130 0.568680 0.194240 -0.513711
O30   O     O_R   0.933870 0.568680 0.805760 -0.499024
O31   O     O_R   0.680610 0.992490 0.199570 -0.516287
O32   O     O_R   0.319390 0.992490 0.800430 -0.508235
O33   O     O_R   0.180610 0.492490 0.199570 -0.523300
O34   O     O_R   0.730100 0.564540 0.803940 -0.499407
O35   O     O_R   0.819390 0.492490 0.800430 -0.508063
O36   O     O_R   0.770060 0.065440 0.307230 -0.505450
O37   O     O_R   0.229940 0.065440 0.692770 -0.518399
O38   O     O_R   0.270060 0.565440 0.307230 -0.516760
O39   O     O_R   0.729940 0.565440 0.692770 -0.519814
O40   O     O_R   0.750960 0.274920 0.302300 -0.482512
O41   O     O_R   0.249040 0.274920 0.697700 -0.464670
O42   O     O_R   0.250960 0.774920 0.302300 -0.464950
O43   O     O_R   0.749040 0.774920 0.697700 -0.464195
O44   O     O_R   0.670160 0.372580 0.305320 -0.509486
O45   O     O_R   0.574760 0.239320 0.300850 -0.501059
O46   O     O_R   0.329840 0.372580 0.694680 -0.515347
O47   O     O_R   0.170160 0.872580 0.305320 -0.512066
O48   O     O_R   0.829840 0.872580 0.694680 -0.515067
O49   O     O_2   0.613671 0.888172 0.499561 -0.554089
O50   O     O_2   0.387551 0.948286 0.497156 -0.519869
O51   O     O_2   0.120235 0.402361 0.493561 -0.542446
O52   O     O_2   0.893370 0.450956 0.493470 -0.518595
O53   O     O_2   0.643652 0.870819 0.687328 -0.534804
O54   O     O_2   0.357477 0.875886 0.314836 -0.516259
O55   O     O_2   0.139768 0.353865 0.680678 -0.540211
O56   O     O_R   0.425240 0.239320 0.699150 -0.506961
O57   O     O_2   0.853501 0.392848 0.311011 -0.517006
O58   O     O_R   0.074760 0.739320 0.300850 -0.499125
O59   O     O_R   0.925240 0.739320 0.699150 -0.506819
O60   O     O_R   0.566290 0.069580 0.305400 -0.514124

loop_
_geom_bond_atom_site_label_1
_geom_bond_atom_site_label_2
_ccdc_geom_bond_type
C21   C26   A    
C34   C56   A    
C126  C127  A    
C262  H46   S    
C200  H67   S    
Cr8   O45   S    
C12   H83   S    
C4    C278  A    
C133  H10   S    
C231  H120  S    
C5    C279  A    
C260  C264  A    
C66   C257  S    
C6    C280  A    
C49   C173  S    
C144  H19   S    
C193  H61   S    
C146  C157  A    
C263  C267  A    
C43   C61   A    
Cr12  O60   S    
C241  C245  A    
C35   C124  A    
C162  C163  A    
C173  H44   S    
Cr6   O16   S    
C155  H28   S    
C143  C144  A    
Cr7   O34   S    
C29   C33   A    
C240  C244  A    
C101  C113  A    
C108  C109  A    
C77   C100  S    
C274  C275  S    
C84   H89   S    
C189  C236  S    
C54   C170  S    
C110  C111  A    
C79   C90   A    
C86   H91   S    
C190  C206  A    
C276  C280  A    
Cr1   O40   S    
Cr2   O32   S    
C223  O25   A    
C42   O43   A    
C17   H92   S    
C25   C60   S    
C204  O20   A    
C224  O26   A    
C81   C86   A    
Cr10  O25   S    
C54   C59   A    
C222  O24   A    
C215  O17   A    
C198  H65   S    
C199  C200  A    
C159  H31   S    
C214  C219  A    
C24   H108  S    
C80   C83   A    
Cr1   O9    S    
C228  H13   S    
Cr5   O41   S    
C104  C105  A    
C125  H3    S    
C211  H126  S    
C156  H29   S    
C126  H4    S    
C71   O37   A    
C25   C29   A    
Cr9   O10   S    
C70   O36   A    
C27   C31   A    
C191  C192  A    
C265  H79   S    
C28   C32   A    
Cr11  O26   S    
C47   C64   A    
C196  C197  A    
C18   H93   S    
Cr8   O44   S    
C279  H70   S    
C268  C277  A    
C209  C213  A    
Cr5   O10   S    
C221  C237  S    
C98   H141  S    
C71   O6    A    
C19   C23   A    
C183  C184  A    
C66   O2    A    
C74   C237  A    
C15   H86   S    
C175  H47   S    
C186  H55   S    
C122  H159  S    
C16   C20   A    
C242  C246  A    
C207  H118  S    
Cr12  O27   S    
C154  C155  A    
C96   H138  S    
C41   O47   A    
C69   C260  S    
C46   C90   A    
C16   H87   S    
C76   C107  S    
C22   C27   A    
C215  O21   A    
C158  C159  A    
C105  H146  S    
C131  H8    S    
C36   C44   A    
C185  H54   S    
C92   H135  S    
C37   C45   A    
C143  H18   S    
C2    C226  A    
C105  C106  A    
C49   C62   A    
C124  C135  A    
C51   C64   A    
C190  C272  S    
C144  C145  A    
C227  H2    S    
C22   C58   S    
C53   C58   A    
C82   C85   A    
C100  C106  A    
C232  H121  S    
C205  H115  S    
C70   O5    A    
C156  C158  A    
C130  C131  A    
C206  H116  S    
C220  H139  S    
C114  H153  S    
C183  C188  A    
C223  C259  S    
C102  H143  S    
C162  H33   S    
C77   C82   A    
C240  H73   S    
C49   C53   A    
C230  C234  A    
C51   C55   A    
Cr12  O9    S    
C38   C134  S    
C110  H151  S    
C67   C258  S    
C141  C147  A    
C48   C52   A    
C88   C89   A    
C181  H51   S    
C98   C99   A    
C166  H38   S    
C155  C156  A    
C30   H101  S    
C239  C243  A    
C45   C154  S    
C186  C187  A    
C168  C269  S    
C200  C202  A    
C120  H158  S    
C201  C273  S    
C245  C250  A    
C179  C205  A    
C146  H113  S    
C128  C129  A    
C97   C98   A    
C273  O35   A    
C136  H11   S    
C167  O49   D    
C149  H22   S    
C81   C101  A    
C85   C86   A    
C169  H40   S    
C23   C59   S    
C176  C182  A    
Cr4   O4    S    
Cr5   O12   S    
C220  C229  A    
C272  O23   A    
C190  C228  A    
Cr2   O6    S    
C170  O51   D    
C3    C277  A    
C13   C57   A    
C115  C116  A    
C232  C236  A    
C184  C185  A    
C69   O59   A    
C137  H12   S    
C189  C191  A    
C208  H123  S    
C1    O14   A    
C164  H36   S    
C221  O22   A    
C224  O30   A    
C107  C108  A    
C213  C249  S    
C237  C270  A    
C13   H109  S    
C173  O54   D    
C89   C91   A    
C229  H24   S    
C271  O12   A    
C160  H32   S    
C171  O52   D    
C201  C229  A    
C211  C216  A    
Cr11  O48   S    
C26   H97   S    
C147  H21   S    
C207  C211  A    
C242  C255  A    
Cr9   O46   S    
C177  H48   S    
C42   O48   A    
C224  C248  S    
C66   O56   A    
C246  C251  A    
C263  H57   S    
C139  C140  A    
C244  H129  S    
C73   O39   A    
C244  C249  A    
Cr4   O8    S    
C191  H59   S    
C11   C33   A    
C29   H100  S    
Cr4   O30   S    
C91   C92   A    
C2    H105  S    
C24   C68   A    
C34   C115  S    
C4    H76   S    
C180  H50   S    
C167  H39   S    
C206  C210  A    
C112  C254  S    
C83   C84   A    
Cr7   O13   S    
C8    C12   A    
C5    C257  A    
C23   C28   A    
Cr4   O35   S    
Cr5   O37   S    
C37   C59   A    
C38   C60   A    
C75   C87   S    
C140  H16   S    
C193  C194  A    
C272  O33   A    
C4    C256  A    
C267  H81   S    
C65   O60   A    
C192  H60   S    
C129  C130  A    
Cr9   O24   S    
C239  C252  A    
C18   C22   A    
C230  H119  S    
C34   C43   A    
C216  C220  A    
C82   C113  A    
C136  C137  A    
C269  O31   A    
C213  C218  A    
C26   C30   A    
C179  C271  S    
C57   C101  A    
C203  C208  A    
C245  H130  S    
C8    C70   S    
C238  C255  A    
C157  H112  S    
C36   C121  S    
Cr11  O13   S    
C97   H140  S    
C117  C118  A    
C145  H20   S    
C216  C251  S    
Cr6   O11   S    
C87   C93   A    
C35   C79   A    
C39   O44   A    
C175  O57   D    
Cr3   O11   S    
C179  C227  A    
C197  C198  A    
C73   O8    A    
Cr1   O1    S    
C203  H114  S    
C138  H14   S    
C276  C277  S    
C150  C151  A    
C152  H26   S    
C152  C153  A    
C5    H75   S    
C236  C254  A    
C57   C146  A    
Cr8   O22   S    
C230  C247  A    
C217  C225  A    
C231  C249  A    
C87   C88   A    
C40   O41   A    
C74   C94   S    
C194  H62   S    
C161  C162  A    
C209  H124  S    
C181  C182  A    
C202  H69   S    
C15   C19   A    
C39   C64   S    
C50   C54   A    
C40   C63   S    
C269  O1    A    
C164  C165  A    
C121  C127  A    
C3    C7    A    
C52   C167  S    
C123  C125  A    
C20   C25   A    
C278  H71   S    
C142  H17   S    
C170  H41   S    
C116  H154  S    
C91   H134  S    
C46   C135  A    
C27   H98   S    
Cr3   O33   S    
C163  C164  A    
C12   C17   A    
C151  C152  A    
C53   C169  S    
C68   C113  A    
C37   C128  S    
Cr8   O18   S    
C197  H64   S    
C7    H77   S    
C194  C195  A    
C95   H137  S    
C221  O27   A    
C55   C60   A    
C171  H42   S    
C7    C260  A    
Cr2   O10   S    
C41   C62   S    
Cr6   O42   S    
C55   C171  S    
C145  C147  A    
C72   O38   A    
C76   C259  A    
C267  C276  A    
C257  C262  A    
C280  H74   S    
C235  C253  A    
C11   C73   S    
C1    O18   A    
C178  H49   S    
Cr4   O13   S    
Cr7   O39   S    
C40   O46   A    
C163  H34   S    
C31   H102  S    
C275  C279  A    
C233  C238  A    
C93   H136  S    
C261  C265  A    
C210  H125  S    
C127  H5    S    
C28   H99   S    
C11   C16   A    
C189  C195  A    
C159  C160  A    
C195  H63   S    
C201  C207  A    
C51   C175  S    
C264  H68   S    
C111  H152  S    
C243  C247  A    
Cr2   O28   S    
C125  C126  A    
C169  O50   D    
C174  O55   D    
C43   C141  S    
C35   C270  A    
C68   C157  A    
C172  O53   D    
C180  C181  A    
C233  C251  A    
C103  H144  S    
C112  O19   A    
C150  H23   S    
Cr10  O47   S    
C14   C18   A    
C9    C71   S    
C88   H132  S    
C131  C132  A    
C39   O40   A    
C21   C56   S    
C178  C180  A    
C273  O34   A    
Cr7   O17   S    
Cr10  O11   S    
C174  H45   S    
C242  H95   S    
C185  C186  A    
Cr10  O58   S    
C130  H7    S    
C6    C258  A    
C77   C248  A    
C8    C30   A    
C104  H145  S    
C187  C188  A    
C14   H85   S    
C149  C150  A    
C204  C253  S    
C85   H90   S    
C158  H30   S    
C20   H96   S    
C92   C93   A    
C218  C227  A    
C111  C114  A    
C41   O42   A    
C13   C259  A    
C94   C95   A    
C124  H111  S    
C17   C21   A    
C138  C139  A    
C108  H148  S    
C217  H106  S    
C47   C161  S    
C246  H131  S    
C32   H103  S    
C177  C178  A    
C74   C78   A    
C103  C104  A    
C165  H37   S    
C142  C143  A    
C50   C174  S    
C128  C133  A    
C1    C255  S    
C119  H157  S    
Cr1   O36   S    
C165  C166  A    
C182  H52   S    
C258  C263  A    
C9    C14   A    
C135  H110  S    
C204  O16   A    
Cr9   O19   S    
C107  C114  A    
C196  C238  S    
C2    C46   A    
C222  O28   A    
C240  C253  A    
C72   O7    A    
Cr3   O7    S    
C36   C58   A    
C187  H56   S    
C134  C140  A    
C225  H150  S    
C123  H160  S    
C139  H15   S    
C222  C226  S    
C65   C256  S    
C129  H6    S    
C151  H25   S    
C116  C117  A    
C67   O58   A    
C118  C119  A    
C184  H53   S    
C48   C172  S    
C176  C234  S    
C132  C133  A    
C214  C250  S    
C223  O29   A    
C212  C217  A    
C3    H72   S    
C183  C235  S    
C75   C80   A    
C266  C275  A    
C161  C166  A    
C208  C212  A    
C256  C261  A    
C89   H133  S    
C218  H117  S    
Cr11  O59   S    
C102  C103  A    
C212  C247  S    
Cr11  O21   S    
Cr5   O15   S    
C50   C63   A    
C219  H128  S    
Cr3   O3    S    
C148  C149  A    
C153  H27   S    
C234  C252  A    
C168  C225  A    
C78   C79   A    
Cr3   O29   S    
C134  C136  A    
C44   C62   A    
C210  C214  A    
C45   C63   A    
C188  H58   S    
C10   C15   A    
Cr9   O56   S    
C154  C160  A    
C10   C32   A    
C205  C209  A    
C264  C268  A    
C96   C97   A    
C100  C102  A    
C121  C122  A    
Cr6   O38   S    
C119  C120  A    
C42   C61   S    
C38   C47   A    
C198  C199  A    
C268  H82   S    
C176  C177  A    
Cr12  O31   S    
C67   O3    A    
C243  H127  S    
C219  C228  A    
C24   C248  A    
C232  C250  A    
Cr12  O5    S    
C196  C202  A    
C266  H80   S    
C106  H147  S    
Cr7   O43   S    
C270  H107  S    
C6    H78   S    
C117  H155  S    
C274  C278  A    
C118  H156  S    
C75   C226  A    
C233  H122  S    
C76   C81   A    
C262  C266  A    
C69   O4    A    
C231  C235  A    
C239  H1    S    
C83   H88   S    
C241  H84   S    
C137  C138  A    
C168  C203  A    
C271  O32   A    
C132  H9    S    
C109  H149  S    
C192  C193  A    
C19   H94   S    
C122  C123  A    
C261  H35   S    
Cr10  O20   S    
C141  C142  A    
C48   C61   A    
C215  C252  S    
C94   C99   A    
C44   C148  S    
C199  H66   S    
C80   C90   A    
Cr1   O14   S    
Cr2   O2    S    
C9    C31   A    
C112  O15   A    
C78   C84   A    
C265  C274  A    
C99   H142  S    
C115  C120  A    
C148  C153  A    
C109  C110  A    
C95   C96   A    
C241  C254  A    
C33   H104  S    
Cr8   O9    S    
C65   O45   A    
C172  H43   S    
C52   C56   A    
C10   C72   S    
Cr6   O23   S    
