data_mof_unit_643.cif
_audit_creation_date              2012-12-11T15:08:45-0500
_audit_creation_method            fapswitch 2.2
_symmetry_space_group_name_H-M    P1
_symmetry_Int_Tables_number       1
_space_group_crystal_system       triclinic
_cell_length_a                    19.758846
_cell_length_b                    11.311248
_cell_length_c                    18.694341
_cell_angle_alpha                 90.178306
_cell_angle_beta                  91.265658
_cell_angle_gamma                 90.008402
_cell_volume                      4177.09333476

loop_
_atom_site_label
_atom_site_type_symbol
_atom_type_description
_atom_site_fract_x
_atom_site_fract_y
_atom_site_fract_z
_atom_type_partial_charge
C1    C     C_R   0.273255 0.042708 0.854149 0.531703
C2    C     C_3   0.690832 0.518658 0.956080 0.012432
C3    C     C_R   0.226252 0.543248 0.354073 0.534781
C4    C     C_R   0.466680 0.821901 0.645063 0.554583
C5    C     C_R   0.532692 0.822900 0.355081 0.551463
C6    C     C_R   0.966423 0.321907 0.644868 0.556823
C7    C     C_R   0.036948 0.322361 0.357091 0.560904
C8    C     C_R   0.260155 0.639114 0.644328 0.536158
C9    C     C_R   0.740101 0.639215 0.355459 0.543385
C10   C     C_R   0.760562 0.140158 0.643845 0.534219
C11   C     C_R   0.239391 0.139886 0.355858 0.543052
C12   C     C_3   0.481423 0.919136 0.036150 -0.090337
C13   C     C_3   0.809106 0.018548 0.043529 0.011895
C14   C     C_3   0.519017 0.918802 0.964223 -0.094685
C15   C     C_3   0.981432 0.419142 0.036146 -0.090248
C16   C     C_3   0.019026 0.418796 0.964218 -0.094934
C17   C     C_3   0.432642 0.822145 0.007449 -0.129585
C18   C     C_3   0.567317 0.821156 0.992646 -0.132147
C19   C     C_3   0.932646 0.322155 0.007447 -0.129361
C20   C     C_3   0.067320 0.321146 0.992644 -0.132477
C21   C     C_3   0.470475 0.822888 0.936484 0.031952
C22   C     C_3   0.529490 0.822523 0.063595 0.031747
C23   C     C_3   0.970479 0.322887 0.936483 0.031908
C24   C     C_3   0.190828 0.018670 0.956073 0.012558
C25   C     C_3   0.029495 0.322524 0.063594 0.031732
C26   C     C_3   0.475141 0.504439 0.398473 -0.306318
C27   C     C_3   0.497044 0.493055 0.589151 -0.304074
C28   C     C_3   0.988104 0.001870 0.400788 -0.299729
C29   C     C_3   0.997649 0.993444 0.590194 -0.305687
C30   C     C_3   0.483452 0.107350 0.415450 -0.304654
C31   C     C_3   0.601619 0.967864 0.673770 -0.288410
C32   C     C_3   0.975685 0.603844 0.404658 -0.309592
C33   C     C_3   0.107206 0.448631 0.678758 -0.286096
C34   C     C_3   0.412552 0.446827 0.105346 -0.312665
C35   C     C_3   0.322015 0.552881 0.964870 -0.245087
C36   C     C_3   0.587380 0.447381 0.893821 -0.312566
C37   C     C_3   0.912560 0.946789 0.105307 -0.312716
C38   C     C_3   0.087382 0.947418 0.893788 -0.312495
C39   C     C_3   0.677964 0.552432 0.034945 -0.245815
C40   C     C_3   0.822013 0.052872 0.964867 -0.245227
C41   C     C_3   0.177960 0.052445 0.034939 -0.245827
C42   C     C_3   0.180374 0.524855 0.024145 -0.192397
C43   C     C_3   0.819625 0.524854 0.975504 -0.193486
C44   C     C_3   0.680374 0.024865 0.024149 -0.192509
C45   C     C_R   0.726707 0.042425 0.145772 0.531740
C46   C     C_3   0.319622 0.024849 0.975503 -0.193431
C47   C     C_3   0.243899 0.705556 0.056370 -0.283396
C48   C     C_3   0.756179 0.705685 0.944175 -0.283894
C49   C     C_3   0.743910 0.205557 0.056373 -0.283360
C50   C     C_3   0.256184 0.205688 0.944171 -0.283918
C51   C     C_3   0.241235 0.573312 0.070212 0.023708
C52   C     C_3   0.758773 0.573523 0.929737 0.024025
C53   C     C_3   0.741238 0.073314 0.070214 0.023878
C54   C     C_3   0.258773 0.073525 0.929734 0.024162
C55   C     C_3   0.256572 0.607600 0.931867 0.050625
C56   C     C_R   0.773256 0.542706 0.854151 0.532056
C57   C     C_3   0.743389 0.607209 0.068145 0.048349
C58   C     C_3   0.756572 0.107601 0.931868 0.050287
C59   C     C_3   0.243387 0.107215 0.068142 0.048246
C60   C     C_3   0.197226 0.522095 0.943785 0.204193
C61   C     C_3   0.802775 0.521859 0.055825 0.205987
C62   C     C_3   0.697222 0.022106 0.943789 0.204553
C63   C     C_3   0.302769 0.021858 0.055823 0.205944
C64   C     C_3   0.241630 0.722365 0.974405 -0.245651
C65   C     C_3   0.758266 0.722156 0.026203 -0.245846
C66   C     C_3   0.741639 0.222367 0.974407 -0.245849
C67   C     C_R   0.226706 0.542424 0.145771 0.532351
C68   C     C_3   0.258270 0.222160 0.026200 -0.245773
C69   C     C_3   0.502863 0.696327 0.458744 0.017864
C70   C     C_3   0.485801 0.695493 0.537197 0.017440
C71   C     C_3   0.009149 0.196840 0.461063 0.021736
C72   C     C_3   0.988580 0.196009 0.538019 0.021238
C73   C     C_R   0.443432 0.817439 0.862214 0.543007
C74   C     C_R   0.556602 0.817178 0.137798 0.544325
C75   C     C_R   0.943435 0.317439 0.862214 0.541994
C76   C     C_R   0.056604 0.317178 0.137798 0.544789
C77   C     C_3   0.568159 0.884312 0.478855 -0.209753
C78   C     C_3   0.518104 0.726425 0.964465 -0.119475
C79   C     C_3   0.438853 0.908168 0.526275 -0.208375
C80   C     C_3   0.068930 0.396993 0.481469 -0.239845
C81   C     C_3   0.940209 0.408102 0.524744 -0.226399
C82   C     C_3   0.445699 0.894392 0.444247 -0.000875
C83   C     C_3   0.559860 0.870011 0.560845 -0.009584
C84   C     C_3   0.947523 0.388428 0.442731 -0.007035
C85   C     C_3   0.062138 0.369270 0.562291 -0.025361
C86   C     C_3   0.511027 0.826972 0.431383 0.032012
C87   C     C_3   0.488311 0.824538 0.569837 0.026668
C88   C     C_3   0.015463 0.327203 0.432797 0.029879
C89   C     C_3   0.481393 0.726762 0.035366 -0.119818
C90   C     C_3   0.989672 0.324793 0.570142 0.026748
C91   C     C_3   0.177489 0.646162 0.458573 -0.224217
C92   C     C_3   0.823112 0.643721 0.541367 -0.225962
C93   C     C_3   0.684503 0.163051 0.455702 -0.230455
C94   C     C_3   0.319990 0.147637 0.541921 -0.224526
C95   C     C_3   0.184210 0.663015 0.537731 -0.228509
C96   C     C_3   0.818020 0.656464 0.461940 -0.246999
C97   C     C_3   0.687725 0.170559 0.535602 -0.230978
C98   C     C_3   0.312019 0.166707 0.463349 -0.237534
C99   C     C_3   0.250233 0.455689 0.472350 -0.220927
C100  C     C_3   0.018103 0.226420 0.964466 -0.119696
C101  C     C_3   0.748237 0.456298 0.526382 -0.216389
C102  C     C_3   0.737714 0.961161 0.471284 -0.223502
C103  C     C_3   0.251322 0.955016 0.526181 -0.216349
C104  C     C_3   0.299118 0.649764 0.444563 -0.271990
C105  C     C_3   0.700997 0.649976 0.555973 -0.269389
C106  C     C_3   0.807602 0.133295 0.444945 -0.263140
C107  C     C_3   0.197466 0.144891 0.555530 -0.269951
C108  C     C_3   0.237766 0.573126 0.430166 0.065653
C109  C     C_3   0.761904 0.572313 0.569623 0.069016
C110  C     C_3   0.739854 0.077327 0.428926 0.060654
C111  C     C_3   0.981393 0.226769 0.035367 -0.119644
C112  C     C_3   0.260758 0.072117 0.569716 0.065698
C113  C     C_3   0.250003 0.605305 0.568172 0.068886
C114  C     C_3   0.750736 0.606107 0.431708 0.053532
C115  C     C_3   0.751406 0.107544 0.567335 0.068269
C116  C     C_3   0.248188 0.105851 0.431901 0.060584
C117  C     C_3   0.243747 0.472452 0.553754 -0.276719
C118  C     C_3   0.750769 0.473725 0.444855 -0.263053
C119  C     C_3   0.742099 0.976215 0.553111 -0.271684
C120  C     C_3   0.257464 0.973546 0.444705 -0.266986
C121  C     C_R   0.262728 0.641351 0.854650 0.582142
C122  C     C_3   0.309108 0.518559 0.043533 0.011877
C123  C     C_R   0.737312 0.640955 0.145422 0.587258
C124  C     C_R   0.762729 0.141353 0.854651 0.583485
C125  C     C_R   0.237311 0.140960 0.145420 0.587624
C126  C     C_3   0.312453 0.647738 0.526249 -0.210775
C127  C     C_3   0.693171 0.660532 0.473979 -0.223754
C128  C     C_3   0.816007 0.142128 0.526944 -0.208501
C129  C     C_3   0.184595 0.143771 0.473597 -0.214849
C130  C     C_R   0.273509 0.042793 0.645790 0.533226
C131  C     C_R   0.727437 0.046120 0.352857 0.531284
C132  C     C_R   0.773778 0.542569 0.645683 0.534965
Cr1   Cr    Cr6+3 0.229620 0.836040 0.749110 0.987147
Cr2   Cr    Cr6+3 0.613980 0.676590 0.250790 0.977291
Cr3   Cr    Cr6+3 0.886020 0.176590 0.749210 0.972477
Cr4   Cr    Cr6+3 0.113980 0.176590 0.250790 0.975467
Cr5   Cr    Cr6+3 0.770380 0.836040 0.250890 0.991518
Cr6   Cr    Cr6+3 0.729620 0.336040 0.749110 0.986243
Cr7   Cr    Cr6+3 0.270380 0.336040 0.250890 0.991649
Cr8   Cr    Cr6+3 0.387630 0.990680 0.750730 0.993634
Cr9   Cr    Cr6+3 0.612370 0.990680 0.249270 0.997806
Cr10  Cr    Cr6+3 0.887630 0.490680 0.750730 0.995237
Cr11  Cr    Cr6+3 0.112370 0.490680 0.249270 0.997284
Cr12  Cr    Cr6+3 0.386020 0.676590 0.749210 0.972964
F1    F     F_    0.140969 0.554234 0.902967 -0.672544
F2    F     F_    0.859052 0.553965 0.096759 -0.665241
F3    F     F_    0.640963 0.054262 0.902978 -0.672103
F4    F     F_    0.359046 0.053958 0.096758 -0.665213
H1    H     H_    0.379179 0.809751 0.020042 0.116557
H2    H     H_    0.709340 0.742266 0.919702 0.123763
H3    H     H_    0.198735 0.924988 0.955191 0.141687
H4    H     H_    0.364275 0.617183 0.961930 0.161631
H5    H     H_    0.635630 0.616535 0.038317 0.161646
H6    H     H_    0.864277 0.117170 0.961929 0.161672
H7    H     H_    0.135628 0.116550 0.038312 0.161658
H8    H     H_    0.337085 0.473122 0.934063 0.094112
H9    H     H_    0.663030 0.472423 0.065299 0.093971
H10   H     H_    0.837080 0.973112 0.934059 0.094226
H11   H     H_    0.163023 0.972437 0.065292 0.093918
H12   H     H_    0.664801 0.939633 0.044824 0.064031
H13   H     H_    0.790858 0.242023 0.080885 0.125874
H14   H     H_    0.335197 0.939658 0.954334 0.064578
H15   H     H_    0.164801 0.439625 0.044822 0.064036
H16   H     H_    0.835202 0.439665 0.954334 0.064546
H17   H     H_    0.712115 0.932622 0.927231 0.108851
H18   H     H_    0.287880 0.932325 0.071940 0.109624
H19   H     H_    0.212127 0.432615 0.927230 0.108515
H20   H     H_    0.787890 0.432324 0.071942 0.109618
H21   H     H_    0.432263 0.666730 0.373357 0.258498
H22   H     H_    0.429228 0.448097 0.394024 0.129646
H23   H     H_    0.510073 0.466071 0.439391 0.144725
H24   H     H_    0.209348 0.242275 0.919696 0.123351
H25   H     H_    0.501000 0.502732 0.346360 0.165132
H26   H     H_    0.556246 0.636782 0.618338 0.261043
H27   H     H_    0.537434 0.425086 0.593531 0.126982
H28   H     H_    0.460703 0.466573 0.546051 0.141101
H29   H     H_    0.469441 0.495720 0.640207 0.169016
H30   H     H_    0.935701 0.158157 0.378063 0.259189
H31   H     H_    0.944406 0.940303 0.397112 0.121045
H32   H     H_    0.024757 0.967856 0.441556 0.142665
H33   H     H_    0.013278 0.002609 0.348323 0.169172
H34   H     H_    0.056275 0.137225 0.621726 0.262793
H35   H     H_    0.277578 0.790127 0.958969 0.080431
H36   H     H_    0.037900 0.926187 0.598783 0.126989
H37   H     H_    0.965019 0.965323 0.544290 0.144836
H38   H     H_    0.966030 0.997054 0.638489 0.169552
H39   H     H_    0.424850 0.993499 0.350807 0.269970
H40   H     H_    0.457177 0.187669 0.395241 0.121757
H41   H     H_    0.530021 0.100582 0.384268 0.180578
H42   H     H_    0.496177 0.122624 0.472577 0.115154
H43   H     H_    0.542185 0.049873 0.593405 0.248239
H44   H     H_    0.626527 0.051927 0.689372 0.183801
H45   H     H_    0.639674 0.895876 0.677955 0.122562
H46   H     H_    0.722263 0.789782 0.042004 0.080988
H47   H     H_    0.561863 0.951168 0.713090 0.199206
H48   H     H_    0.924793 0.473121 0.344361 0.274166
H49   H     H_    0.948683 0.673307 0.373361 0.135828
H50   H     H_    0.026891 0.598762 0.382583 0.179875
H51   H     H_    0.978146 0.634632 0.460912 0.106549
H52   H     H_    0.042649 0.539679 0.607139 0.255694
H53   H     H_    0.129344 0.531900 0.700228 0.186948
H54   H     H_    0.148194 0.381763 0.676054 0.119332
H55   H     H_    0.069111 0.417578 0.716940 0.193991
H56   H     H_    0.359771 0.600067 0.132950 0.269966
H57   H     H_    0.777588 0.290124 0.958970 0.080403
H58   H     H_    0.456976 0.477991 0.137571 0.139015
H59   H     H_    0.430813 0.407515 0.054760 0.142901
H60   H     H_    0.386023 0.378264 0.136541 0.192764
H61   H     H_    0.640233 0.600734 0.867154 0.268605
H62   H     H_    0.543117 0.478588 0.861493 0.139142
H63   H     H_    0.568879 0.408037 0.944151 0.142921
H64   H     H_    0.613992 0.378802 0.862474 0.192523
H65   H     H_    0.859779 0.100010 0.132956 0.270058
H66   H     H_    0.956993 0.977938 0.137522 0.139066
H67   H     H_    0.930806 0.907500 0.054709 0.142895
H68   H     H_    0.222269 0.289789 0.042000 0.081012
H69   H     H_    0.886039 0.878212 0.136501 0.192596
H70   H     H_    0.140238 0.100782 0.867153 0.268063
H71   H     H_    0.043126 0.978637 0.861453 0.139206
H72   H     H_    0.068870 0.908059 0.944109 0.142964
H73   H     H_    0.114000 0.878847 0.862440 0.192703
H74   H     H_    0.188894 0.747563 0.959471 0.176237
H75   H     H_    0.810964 0.747415 0.041394 0.176310
H76   H     H_    0.688903 0.247566 0.959477 0.176175
H77   H     H_    0.620742 0.807931 0.980157 0.116223
H78   H     H_    0.310969 0.247416 0.041392 0.176273
H79   H     H_    0.635145 0.082217 0.031409 0.175305
H80   H     H_    0.364870 0.082227 0.968543 0.175296
H81   H     H_    0.135143 0.582204 0.031401 0.175307
H82   H     H_    0.864871 0.582238 0.968544 0.175318
H83   H     H_    0.551787 0.655188 0.454604 0.183188
H84   H     H_    0.434634 0.670408 0.541033 0.176957
H85   H     H_    0.059309 0.161435 0.458952 0.176235
H86   H     H_    0.937052 0.170992 0.538933 0.175097
H87   H     H_    0.609030 0.829868 0.465449 0.062610
H88   H     H_    0.879184 0.309764 0.020042 0.116539
H89   H     H_    0.386729 0.893657 0.541290 0.085071
H90   H     H_    0.119825 0.388505 0.463031 0.090711
H91   H     H_    0.887477 0.396509 0.539950 0.092161
H92   H     H_    0.596667 0.802696 0.579422 0.134938
H93   H     H_    0.403019 0.837727 0.425729 0.110844
H94   H     H_    0.098756 0.299104 0.575300 0.142630
H95   H     H_    0.906352 0.327237 0.426683 0.114478
H96   H     H_    0.470165 0.001189 0.065922 0.207223
H97   H     H_    0.530555 0.000634 0.934682 0.206133
H98   H     H_    0.970175 0.501198 0.065916 0.207190
H99   H     H_    0.120746 0.307918 0.980153 0.116180
H100  H     H_    0.030566 0.500624 0.934674 0.206356
H101  H     H_    0.450472 0.998743 0.542115 0.146015
H102  H     H_    0.579198 0.975827 0.464597 0.150482
H103  H     H_    0.954283 0.499300 0.538106 0.137199
H104  H     H_    0.058311 0.490608 0.477550 0.154727
H105  H     H_    0.128916 0.605662 0.445514 0.126111
H106  H     H_    0.871833 0.603882 0.555600 0.138579
H107  H     H_    0.632452 0.136281 0.440575 0.124329
H108  H     H_    0.369070 0.106826 0.552740 0.141553
H109  H     H_    0.174967 0.733971 0.431994 0.113389
H110  H     H_    0.200455 0.752339 0.080646 0.123670
H111  H     H_    0.824945 0.732969 0.566478 0.116579
H112  H     H_    0.691458 0.250669 0.431552 0.115847
H113  H     H_    0.322318 0.234383 0.569962 0.114867
H114  H     H_    0.181953 0.756557 0.549695 0.127871
H115  H     H_    0.830240 0.747830 0.447272 0.122572
H116  H     H_    0.683797 0.261639 0.551917 0.130602
H117  H     H_    0.313472 0.259891 0.452155 0.123173
H118  H     H_    0.139280 0.628096 0.563537 0.157576
H119  H     H_    0.856702 0.604919 0.438875 0.190449
H120  H     H_    0.641714 0.131618 0.557149 0.153298
H121  H     H_    0.799723 0.752462 0.920243 0.122903
H122  H     H_    0.355949 0.132950 0.436519 0.180036
H123  H     H_    0.689972 0.926704 0.455593 0.117191
H124  H     H_    0.282551 0.884490 0.546948 0.114930
H125  H     H_    0.221838 0.380942 0.450770 0.116520
H126  H     H_    0.780315 0.383974 0.544715 0.114395
H127  H     H_    0.695989 0.942447 0.577245 0.152404
H128  H     H_    0.307242 0.943886 0.425942 0.130486
H129  H     H_    0.194866 0.438158 0.570483 0.161142
H130  H     H_    0.796354 0.431120 0.422632 0.122204
H131  H     H_    0.339998 0.608065 0.415999 0.149212
H132  H     H_    0.700470 0.252346 0.080651 0.123698
H133  H     H_    0.656012 0.608033 0.578550 0.128249
H134  H     H_    0.846213 0.073574 0.423349 0.150422
H135  H     H_    0.155117 0.103265 0.583088 0.130269
H136  H     H_    0.292427 0.740712 0.424023 0.104579
H137  H     H_    0.707774 0.737579 0.581918 0.098712
H138  H     H_    0.810962 0.221089 0.419158 0.096745
H139  H     H_    0.204350 0.235868 0.576324 0.100550
H140  H     H_    0.527776 0.643963 0.935726 0.175984
H141  H     H_    0.471397 0.644621 0.063993 0.176118
H142  H     H_    0.027768 0.143952 0.935731 0.175975
H143  H     H_    0.299731 0.252459 0.920240 0.122783
H144  H     H_    0.971389 0.144635 0.064000 0.176128
H145  H     H_    0.333279 0.730386 0.546551 0.096552
H146  H     H_    0.695856 0.750742 0.459265 0.115127
H147  H     H_    0.834666 0.229092 0.543352 0.095439
H148  H     H_    0.164179 0.226553 0.453982 0.098930
H149  H     H_    0.350644 0.577836 0.536503 0.130801
H150  H     H_    0.647646 0.614131 0.456102 0.132654
H151  H     H_    0.853721 0.074132 0.543199 0.130080
H152  H     H_    0.146740 0.073620 0.461887 0.128739
H153  H     H_    0.303936 0.433800 0.463656 0.118967
H154  H     H_    0.290843 0.742033 0.080883 0.125871
H155  H     H_    0.695177 0.433527 0.537319 0.125033
H156  H     H_    0.778458 0.902993 0.454044 0.131133
H157  H     H_    0.198524 0.928154 0.534690 0.122178
H158  H     H_    0.284037 0.423097 0.583294 0.100283
H159  H     H_    0.705376 0.435229 0.417783 0.110977
H160  H     H_    0.785074 0.924581 0.576214 0.100743
H161  H     H_    0.217963 0.922231 0.414937 0.104970
H162  H     H_    0.301153 0.424929 0.043663 0.140778
H163  H     H_    0.698747 0.424981 0.955198 0.141699
H164  H     H_    0.801143 0.924923 0.043657 0.140805
N1    N     N_2   0.455439 0.624638 0.416189 -0.543722
N2    N     N_2   0.632413 0.545669 0.910034 -0.533648
N3    N     N_2   0.867521 0.045137 0.089765 -0.533763
N4    N     N_2   0.132413 0.045699 0.910024 -0.533803
N5    N     N_2   0.527525 0.607282 0.575296 -0.538736
N6    N     N_2   0.964128 0.119614 0.418571 -0.536334
N7    N     N_2   0.028691 0.107677 0.577849 -0.535915
N8    N     N_2   0.440099 0.004617 0.403542 -0.534942
N9    N     N_2   0.573534 0.978313 0.601388 -0.564074
N10   N     N_2   0.938939 0.492426 0.396568 -0.534708
N11   N     N_2   0.076732 0.470755 0.608545 -0.565605
N12   N     N_2   0.367518 0.545168 0.089772 -0.533853
O1    O     O_R   0.214130 0.708570 0.829890 -0.472638
O2    O     O_R   0.542830 0.717300 0.331620 -0.530553
O3    O     O_R   0.957170 0.217300 0.668380 -0.531127
O4    O     O_R   0.042830 0.217300 0.331620 -0.527534
O5    O     O_R   0.320870 0.624890 0.673130 -0.516650
O6    O     O_R   0.679130 0.624890 0.326870 -0.516523
O7    O     O_R   0.820870 0.124890 0.673130 -0.516647
O8    O     O_R   0.179130 0.124890 0.326870 -0.517730
O9    O     O_3   0.334430 0.834430 0.749680 -0.294281
O10   O     O_3   0.665570 0.834430 0.250320 -0.295865
O11   O     O_3   0.834430 0.334430 0.749680 -0.294427
O12   O     O_R   0.785870 0.708570 0.170110 -0.466927
O13   O     O_3   0.165570 0.334430 0.250320 -0.299528
O14   O     O_R   0.236050 0.959150 0.825270 -0.512196
O15   O     O_R   0.763950 0.959150 0.174730 -0.512967
O16   O     O_R   0.736050 0.459150 0.825270 -0.512056
O17   O     O_R   0.263950 0.459150 0.174730 -0.512490
O18   O     O_R   0.332100 0.076650 0.832310 -0.532845
O19   O     O_R   0.667900 0.076650 0.167690 -0.533734
O20   O     O_R   0.832100 0.576650 0.832310 -0.532598
O21   O     O_R   0.167900 0.576650 0.167690 -0.533553
O22   O     O_R   0.446500 0.918620 0.826240 -0.498710
O23   O     O_R   0.714130 0.208570 0.829890 -0.472331
O24   O     O_R   0.553500 0.918620 0.173760 -0.489560
O25   O     O_R   0.946500 0.418620 0.826240 -0.497396
O26   O     O_R   0.053500 0.418620 0.173760 -0.488972
O27   O     O_R   0.457310 0.715830 0.831280 -0.530349
O28   O     O_R   0.542690 0.715830 0.168720 -0.528775
O29   O     O_R   0.957310 0.215830 0.831280 -0.531393
O30   O     O_R   0.042690 0.215830 0.168720 -0.528247
O31   O     O_R   0.321000 0.623520 0.824130 -0.539494
O32   O     O_R   0.679000 0.623520 0.175870 -0.539545
O33   O     O_R   0.821000 0.123520 0.824130 -0.538924
O34   O     O_R   0.285870 0.208570 0.170110 -0.466419
O35   O     O_R   0.179000 0.123520 0.175870 -0.539664
O36   O     O_R   0.213990 0.710040 0.667000 -0.538890
O37   O     O_R   0.786010 0.710040 0.333000 -0.529753
O38   O     O_R   0.713990 0.210040 0.667000 -0.542800
O39   O     O_R   0.286010 0.210040 0.333000 -0.531091
O40   O     O_R   0.235920 0.960520 0.674260 -0.513620
O41   O     O_R   0.764080 0.960520 0.325740 -0.517061
O42   O     O_R   0.735920 0.460520 0.674260 -0.513863
O43   O     O_R   0.264080 0.460520 0.325740 -0.516511
O44   O     O_R   0.331960 0.078120 0.669410 -0.536761
O45   O     O_R   0.446360 0.919990 0.675230 -0.509763
O46   O     O_R   0.668040 0.078120 0.330590 -0.542769
O47   O     O_R   0.831960 0.578120 0.669410 -0.537250
O48   O     O_R   0.168040 0.578120 0.330590 -0.543055
O49   O     O_R   0.553640 0.919990 0.324770 -0.501131
O50   O     O_R   0.946360 0.419990 0.675230 -0.508735
O51   O     O_R   0.053640 0.419990 0.324770 -0.499506
O52   O     O_R   0.457170 0.717300 0.668380 -0.530708

loop_
_geom_bond_atom_site_label_1
_geom_bond_atom_site_label_2
_ccdc_geom_bond_type
Cr12  O31   S    
C120  H161  S    
C83   C87   S    
C124  O33   A    
C121  O31   A    
Cr8   O18   S    
C107  C129  S    
C79   C87   S    
C124  O23   A    
C4    C87   S    
Cr1   O14   S    
C37   N3    S    
C38   N4    S    
C9    C114  S    
C14   C21   S    
C130  O40   A    
C71   N6    S    
C68   H78   S    
C92   C109  S    
C98   H117  S    
C24   C54   S    
C77   H87   S    
C29   H38   S    
C107  C112  S    
C30   H41   S    
C100  H142  S    
C123  O32   A    
C64   H35   S    
C44   C53   S    
C63   H18   S    
C103  H157  S    
C105  H133  S    
C2    N2    S    
C13   N3    S    
C48   C65   S    
C97   C115  S    
C132  O47   A    
C99   H153  S    
C93   C110  S    
C24   C41   S    
C96   C114  S    
C81   H103  S    
Cr8   O22   S    
C8    O5    A    
C123  O12   A    
C16   H100  S    
C78   C89   S    
C40   C58   S    
C102  H123  S    
C17   C89   S    
H34   N7    S    
C23   C75   S    
C47   C64   S    
C118  H130  S    
C95   H118  S    
C49   H132  S    
C82   N8    S    
C31   H44   S    
C33   H55   S    
C17   C21   S    
C103  C112  S    
H65   N3    S    
C19   C23   S    
C61   F2    S    
C29   N7    S    
C32   H49   S    
C24   H3    S    
C30   N8    S    
C57   C123  S    
C7    C88   S    
C16   C20   S    
C109  C132  S    
C110  C131  S    
C28   H32   S    
C2    C52   S    
C36   H64   S    
C81   C90   S    
C39   H5    S    
C36   N2    S    
C35   H4    S    
Cr4   O13   S    
C37   H66   S    
C67   O21   A    
C43   C61   S    
C65   H46   S    
C27   N5    S    
C35   C122  S    
C84   C88   S    
C27   H28   S    
C85   C90   S    
C57   C61   S    
C19   C111  S    
C34   H59   S    
C59   C63   S    
C25   C76   S    
Cr8   O9    S    
Cr9   O19   S    
C80   C88   S    
C127  H150  S    
C31   H47   S    
Cr5   O15   S    
C49   C53   S    
C85   H94   S    
C22   C89   S    
C56   O16   A    
C69   C70   S    
C44   H79   S    
Cr6   O38   S    
C71   C88   S    
C42   H81   S    
Cr8   O44   S    
C117  H158  S    
C26   H22   S    
C100  C111  S    
Cr3   O11   S    
Cr9   O10   S    
C77   H102  S    
Cr3   O29   S    
C50   H143  S    
C102  C119  S    
C131  O46   A    
C55   C121  S    
C24   N4    S    
C19   H88   S    
C43   H82   S    
Cr10  O20   S    
C99   C108  S    
Cr7   O17   S    
C101  C118  S    
C38   H73   S    
C32   H51   S    
C11   O39   A    
C43   C52   S    
C15   C25   S    
C47   H110  S    
C21   C73   S    
C92   C96   S    
C33   N11   S    
C32   N10   S    
C85   N11   S    
C72   N7    S    
C12   H96   S    
C49   H13   S    
C43   H16   S    
Cr11  O26   S    
C23   C100  S    
C45   C53   S    
C130  O44   A    
C70   C87   S    
C78   H140  S    
C65   H75   S    
C120  H128  S    
Cr12  O52   S    
Cr2   O10   S    
C60   H19   S    
C49   C66   S    
C105  C127  S    
Cr5   O37   S    
C69   N1    S    
Cr4   O8    S    
C31   H45   S    
C66   H57   S    
Cr4   O30   S    
Cr1   O1    S    
C113  C126  S    
C91   H105  S    
C6    C90   S    
C77   C83   S    
C105  H137  S    
C115  C128  S    
C116  C120  S    
C106  H134  S    
C73   O22   A    
C12   C17   S    
C107  H139  S    
C18   H77   S    
C99   C117  S    
C72   C90   S    
Cr10  O25   S    
Cr9   O46   S    
C15   H98   S    
C48   C52   S    
C118  H159  S    
C64   H74   S    
C51   C67   S    
C113  C117  S    
C89   H141  S    
C45   O19   A    
C16   C23   S    
C115  C119  S    
C11   O8    A    
C101  H126  S    
C22   C74   S    
H26   N5    S    
Cr7   O43   S    
C93   C97   S    
H61   N2    S    
C92   H111  S    
C125  O34   A    
C105  C109  S    
C83   H92   S    
C76   O26   A    
C18   C22   S    
C38   H71   S    
Cr2   O32   S    
C77   C86   S    
C79   C82   S    
C3    C108  S    
C59   C125  S    
C46   C63   S    
C2    H163  S    
C71   C72   S    
Cr10  O11   S    
C94   C112  S    
C29   H37   S    
C71   H85   S    
Cr9   O24   S    
C67   O17   A    
C25   C111  S    
C91   C95   S    
C61   H20   S    
C80   H104  S    
C34   N12   S    
C132  O42   A    
C50   H24   S    
C112  C130  S    
C1    O14   A    
C76   O30   A    
C5    O49   A    
C41   H7    S    
C92   H106  S    
C58   C62   S    
Cr9   O49   S    
Cr6   O11   S    
C29   H36   S    
C48   H2    S    
C103  C120  S    
C37   H69   S    
C126  H149  S    
C15   C19   S    
C8    O36   A    
C50   C54   S    
C131  O41   A    
C40   H10   S    
Cr11  O51   S    
Cr6   O42   S    
Cr7   O34   S    
C69   H83   S    
C20   C25   S    
C94   C98   S    
C101  C109  S    
C106  C128  S    
C33   H54   S    
C75   O25   A    
Cr3   O33   S    
C13   C40   S    
C32   H50   S    
C20   H99   S    
Cr1   O40   S    
C21   C78   S    
C14   H97   S    
C55   C60   S    
Cr7   O13   S    
C104  H131  S    
C13   C53   S    
C26   N1    S    
Cr10  O47   S    
Cr12  O9    S    
C27   H27   S    
C4    O52   A    
C47   C51   S    
C34   H60   S    
C82   C86   S    
C6    O50   A    
C34   H58   S    
C111  H144  S    
C81   H91   S    
C82   H93   S    
C30   H40   S    
C80   C85   S    
C91   H109  S    
C20   C100  S    
C46   C54   S    
Cr1   O36   S    
C11   C116  S    
C8    C113  S    
C26   H23   S    
Cr2   O6    S    
C3    O48   A    
Cr5   O41   S    
C44   H12   S    
Cr4   O4    S    
C47   H154  S    
Cr11  O21   S    
C60   F1    S    
C9    O37   A    
C104  C108  S    
C128  H151  S    
C74   O24   A    
C106  H138  S    
C91   C108  S    
C107  H135  S    
C27   H29   S    
C57   C65   S    
C93   H107  S    
C26   H25   S    
C104  H136  S    
C114  C127  S    
C121  O1    A    
C45   O15   A    
C84   H95   S    
Cr7   O39   S    
C6    O3    A    
C68   H68   S    
C28   H31   S    
C70   H84   S    
C36   H63   S    
C119  H127  S    
C7    O51   A    
C4    O45   A    
C94   H113  S    
Cr8   O45   S    
Cr2   O2    S    
C51   C122  S    
C46   H80   S    
H48   N10   S    
C50   C68   S    
C37   H67   S    
C122  N12   S    
C128  H147  S    
C5    O2    A    
C12   C22   S    
C10   O7    A    
C14   C18   S    
H52   N11   S    
C99   H125  S    
H21   N1    S    
C98   H122  S    
Cr6   O16   S    
Cr5   O10   S    
Cr4   O35   S    
C10   O38   A    
C9    O6    A    
C73   O27   A    
C15   C16   S    
C39   C57   S    
C122  H162  S    
C80   H90   S    
C1    O18   A    
C31   N9    S    
Cr11  O48   S    
C117  H129  S    
H56   N12   S    
C97   H116  S    
C41   H11   S    
C2    C39   S    
C58   C66   S    
C95   H114  S    
C116  C129  S    
C83   N9    S    
H43   N9    S    
C18   C78   S    
C42   C51   S    
C126  H145  S    
C96   H119  S    
C30   H42   S    
Cr11  O13   S    
C39   H9    S    
C79   H101  S    
C40   H6    S    
H39   N8    S    
H70   N4    S    
Cr3   O3    S    
C119  H160  S    
C35   C55   S    
C38   H72   S    
C35   H8    S    
C41   C59   S    
C66   H76   S    
C42   C60   S    
C42   H15   S    
C129  H148  S    
C44   C62   S    
C102  H156  S    
C84   N10   S    
Cr10  O50   S    
C28   N6    S    
C28   H33   S    
C94   H108  S    
C59   C68   S    
C93   H112  S    
C97   H120  S    
C98   C116  S    
C55   C64   S    
C114  C118  S    
C127  H146  S    
C5    C86   S    
C12   C14   S    
C48   H121  S    
C96   H115  S    
C62   F3    S    
C56   O20   A    
C79   H89   S    
Cr12  O5    S    
C63   F4    S    
C75   O29   A    
C81   C84   S    
C106  C110  S    
Cr3   O7    S    
C17   H1    S    
C70   N5    S    
C3    O43   A    
Cr5   O12   S    
C129  H152  S    
C58   C124  S    
C13   H164  S    
C103  H124  S    
C95   C113  S    
C33   H53   S    
C72   H86   S    
Cr6   O23   S    
Cr2   O28   S    
H30   N6    S    
C101  H155  S    
C102  C110  S    
C10   C115  S    
Cr1   O9    S    
C74   O28   A    
C62   H17   S    
C104  C126  S    
C46   H14   S    
C7    O4    A    
Cr12  O27   S    
C1    C54   S    
C69   C86   S    
C52   C56   S    
C36   H62   S    
C125  O35   A    
