data_mof_unit_1814.cif
_audit_creation_date              2012-12-10T18:25:28-0500
_audit_creation_method            fapswitch 2.2
_symmetry_space_group_name_H-M    P1
_symmetry_Int_Tables_number       1
_space_group_crystal_system       triclinic
_cell_length_a                    25.866804
_cell_length_b                    25.864374
_cell_length_c                    18.318383
_cell_angle_alpha                 90.158654
_cell_angle_beta                  135.18506
_cell_angle_gamma                 89.790491
_cell_volume                      8637.87058872

loop_
_atom_site_label
_atom_site_type_symbol
_atom_type_description
_atom_site_fract_x
_atom_site_fract_y
_atom_site_fract_z
_atom_type_partial_charge
C1    C     C_R   0.107694 0.249183 0.497548 0.794521
C2    C     C_R   0.107841 0.750809 0.497836 0.776553
C3    C     C_R   0.609812 0.751189 0.501804 0.800616
C4    C     C_R   0.607619 0.251114 0.497314 0.785916
C5    C     C_3   0.514957 0.284656 0.940093 -0.285157
C6    C     C_3   0.511017 0.711310 0.939959 -0.302103
C7    C     C_3   0.013244 0.786254 0.939475 -0.323521
C8    C     C_3   0.011438 0.211717 0.939497 -0.314067
C9    C     C_3   0.450430 0.248634 0.897241 -0.006673
C10   C     C_3   0.449748 0.751076 0.897227 0.009056
C11   C     C_3   0.950340 0.748669 0.897150 0.018636
C12   C     C_3   0.949841 0.251054 0.897104 0.011869
C13   C     C_3   0.550773 0.250063 0.101812 -0.114470
C14   C     C_3   0.550544 0.750226 0.101670 -0.061067
C15   C     C_3   0.051185 0.749720 0.101669 -0.050880
C16   C     C_3   0.050896 0.250295 0.101529 -0.052050
C17   C     C_3   0.472390 0.262466 0.055894 -0.181764
C18   C     C_3   0.471178 0.742875 0.056060 -0.204535
C19   C     C_3   0.972829 0.761440 0.056494 -0.227319
C20   C     C_3   0.972014 0.241024 0.056348 -0.217545
C21   C     C_3   0.568127 0.291943 0.058326 -0.214449
C22   C     C_3   0.563732 0.704850 0.057907 -0.233322
C23   C     C_3   0.067455 0.792363 0.057809 -0.209790
C24   C     C_3   0.065606 0.206114 0.057804 -0.225000
C25   C     C_3   0.524859 0.227977 0.605537 -0.050463
C26   C     C_3   0.524379 0.718738 0.604548 -0.167391
C27   C     C_3   0.026028 0.730239 0.608412 -0.046724
C28   C     C_3   0.025566 0.269439 0.607706 -0.106640
C29   C     C_3   0.579295 0.223654 0.594178 -0.505140
C30   C     C_3   0.575873 0.714543 0.588400 -0.514899
C31   C     C_3   0.080812 0.725492 0.597575 -0.507135
C32   C     C_3   0.078649 0.276161 0.594449 -0.606255
C33   C     C_3   0.460194 0.304904 0.480620 -0.411353
C34   C     C_3   0.422991 0.729393 0.405669 -0.475990
C35   C     C_3   0.957804 0.804026 0.475800 -0.409601
C36   C     C_3   0.959537 0.194635 0.478277 -0.434353
C37   C     C_3   0.420949 0.214201 0.401182 -0.194412
C38   C     C_3   0.478152 0.811226 0.517561 -0.155842
C39   C     C_3   0.923142 0.711395 0.405772 -0.196044
C40   C     C_3   0.921344 0.285930 0.403002 -0.211003
C41   C     C_3   0.447963 0.248352 0.497115 -0.140262
C42   C     C_3   0.453939 0.752704 0.509553 -0.053361
C43   C     C_3   0.948312 0.748042 0.497946 -0.143093
C44   C     C_3   0.948072 0.250784 0.497617 -0.054635
C45   C     C_R   0.390643 0.250173 0.498776 0.831858
C46   C     C_R   0.392433 0.750669 0.502471 0.877041
C47   C     C_R   0.890772 0.750034 0.499068 0.822988
C48   C     C_R   0.890491 0.249404 0.498568 0.817560
C49   C     C_3   0.548603 0.250872 0.494459 0.002378
C50   C     C_3   0.553698 0.753375 0.504850 0.084087
C51   C     C_3   0.048930 0.750275 0.495270 0.009615
C52   C     C_3   0.048427 0.249404 0.494305 0.082985
C53   C     C_3   0.525240 0.306576 0.492005 -0.366289
C54   C     C_3   0.478746 0.735580 0.399046 -0.359426
C55   C     C_3   0.022871 0.805874 0.487287 -0.368001
C56   C     C_3   0.024993 0.193446 0.490334 -0.350810
C57   C     C_3   0.480315 0.219459 0.398400 -0.206869
C58   C     C_3   0.546354 0.808846 0.532403 -0.353276
C59   C     C_3   0.982201 0.716506 0.402366 -0.210645
C60   C     C_3   0.980018 0.281049 0.398787 -0.294246
C61   C     C_3   0.283735 0.029848 0.606797 -0.389155
C62   C     C_3   0.278361 0.970481 0.603923 -0.379982
C63   C     C_3   0.787498 0.529704 0.608840 -0.362813
C64   C     C_3   0.781010 0.470342 0.605232 -0.379040
C65   C     C_3   0.300226 0.029493 0.485189 -0.260345
C66   C     C_3   0.305297 0.969167 0.494112 -0.264604
C67   C     C_3   0.798508 0.529990 0.481525 -0.253438
C68   C     C_3   0.802901 0.469696 0.489303 -0.257692
C69   C     C_3   0.171708 0.030325 0.414714 -0.272387
C70   C     C_3   0.172185 0.969848 0.411244 -0.278332
C71   C     C_3   0.671997 0.530249 0.417679 -0.278490
C72   C     C_3   0.672179 0.469754 0.413259 -0.271849
C73   C     C_3   0.252251 0.051105 0.501804 -0.019689
C74   C     C_3   0.252301 0.948763 0.502442 -0.016848
C75   C     C_3   0.752744 0.551152 0.502155 -0.024015
C76   C     C_3   0.752636 0.448782 0.502292 -0.029872
C77   C     C_3   0.250811 0.448652 0.502313 0.013216
C78   C     C_3   0.251718 0.551003 0.501982 0.009094
C79   C     C_3   0.751450 0.948832 0.501401 -0.005652
C80   C     C_3   0.751716 0.051167 0.500925 0.016098
C81   C     C_3   0.283589 0.469015 0.461002 -0.267488
C82   C     C_3   0.278238 0.529283 0.452678 -0.270740
C83   C     C_3   0.793098 0.969579 0.473494 -0.261755
C84   C     C_3   0.786007 0.029691 0.462231 -0.268900
C85   C     C_3   0.170630 0.470325 0.425624 -0.407658
C86   C     C_3   0.171820 0.529904 0.432658 -0.404977
C87   C     C_3   0.671329 0.970435 0.415745 -0.398313
C88   C     C_3   0.671321 0.029905 0.422579 -0.413249
C89   C     C_R   0.249928 0.391083 0.500956 0.795263
C90   C     C_R   0.250238 0.608789 0.500418 0.790413
C91   C     C_R   0.750060 0.891150 0.499865 0.805843
C92   C     C_R   0.750216 0.108844 0.499899 0.782428
C93   C     C_3   0.289609 0.470229 0.611928 -0.267613
C94   C     C_3   0.297834 0.530146 0.614766 -0.267858
C95   C     C_3   0.782555 0.970119 0.606852 -0.273012
C96   C     C_3   0.790383 0.030161 0.610730 -0.252527
C97   C     C_R   0.251252 0.108912 0.501250 0.829160
C98   C     C_R   0.250918 0.891060 0.501136 0.829437
C99   C     C_R   0.751287 0.608935 0.501293 0.847244
C100  C     C_R   0.751657 0.391072 0.501746 0.797338
C101  C     C_R   0.108722 0.249958 0.217594 0.887583
C102  C     C_R   0.108774 0.750096 0.217713 0.887165
C103  C     C_R   0.608443 0.749729 0.217640 0.873552
C104  C     C_R   0.608601 0.250286 0.217772 0.780654
C105  C     C_R   0.391690 0.249505 0.782031 0.851474
C106  C     C_R   0.391363 0.750190 0.782100 0.828975
C107  C     C_R   0.891568 0.749614 0.781983 0.833877
C108  C     C_R   0.891301 0.250123 0.782050 0.829162
C109  C     C_3   0.480051 0.192509 0.940679 -0.252594
C110  C     C_3   0.483617 0.806350 0.939579 -0.335190
C111  C     C_3   0.981900 0.692857 0.939084 -0.332401
C112  C     C_3   0.982866 0.306504 0.938823 -0.327958
C113  C     C_3   0.549191 0.194213 0.062137 -0.166144
C114  C     C_3   0.552431 0.804757 0.061411 -0.163781
C115  C     C_3   0.049433 0.693644 0.061439 -0.169050
C116  C     C_3   0.050946 0.305471 0.060950 -0.166584
C117  C     C_3   0.417082 0.269284 0.936455 -0.443727
C118  C     C_3   0.415089 0.735455 0.936752 -0.433592
C119  C     C_3   0.916550 0.767158 0.936782 -0.424178
C120  C     C_3   0.915570 0.234785 0.936810 -0.421197
H1    H     H_    0.434089 0.173045 0.923910 0.113232
H2    H     H_    0.439562 0.829460 0.922639 0.150933
H3    H     H_    0.936225 0.671078 0.919610 0.151437
H4    H     H_    0.938136 0.329451 0.920364 0.150391
H5    H     H_    0.401573 0.310448 0.912530 0.260294
H6    H     H_    0.396291 0.694755 0.913019 0.257794
H7    H     H_    0.898079 0.807828 0.911086 0.256021
H8    H     H_    0.896283 0.194251 0.911656 0.259420
H9    H     H_    0.590160 0.182688 0.589814 0.216290
H10   H     H_    0.634461 0.717218 0.661794 0.187885
H11   H     H_    0.093870 0.684581 0.597246 0.220723
H12   H     H_    0.086950 0.317858 0.590256 0.174620
H13   H     H_    0.634012 0.239806 0.663593 0.186650
H14   H     H_    0.573124 0.675137 0.560726 0.194816
H15   H     H_    0.134675 0.743328 0.665319 0.182249
H16   H     H_    0.134370 0.260998 0.663399 0.182293
H17   H     H_    0.470649 0.332402 0.536650 0.203173
H18   H     H_    0.408820 0.688031 0.397661 0.201516
H19   H     H_    0.966681 0.832925 0.528804 0.216535
H20   H     H_    0.969479 0.166363 0.532779 0.196603
H21   H     H_    0.572120 0.327035 0.564911 0.183128
H22   H     H_    0.484725 0.697984 0.375846 0.195015
H23   H     H_    0.068696 0.828084 0.558096 0.182331
H24   H     H_    0.071796 0.172636 0.562768 0.178666
H25   H     H_    0.502134 0.180267 0.407355 0.190673
H26   H     H_    0.597054 0.813443 0.615747 0.120599
H27   H     H_    0.005800 0.677525 0.414998 0.188873
H28   H     H_    0.000789 0.320549 0.406933 0.139419
H29   H     H_    0.410658 0.320289 0.403432 0.209664
H30   H     H_    0.370118 0.747603 0.336819 0.199286
H31   H     H_    0.907627 0.817427 0.397083 0.204444
H32   H     H_    0.909922 0.180252 0.400113 0.204867
H33   H     H_    0.510626 0.329680 0.428487 0.215371
H34   H     H_    0.457789 0.763890 0.337550 0.224362
H35   H     H_    0.007300 0.827388 0.421664 0.214611
H36   H     H_    0.010830 0.170702 0.426689 0.221991
H37   H     H_    0.341605 0.041659 0.672842 0.249687
H38   H     H_    0.331511 0.954007 0.675064 0.255431
H39   H     H_    0.846059 0.540815 0.672170 0.262333
H40   H     H_    0.833998 0.452860 0.674858 0.256171
H41   H     H_    0.252627 0.045925 0.622841 0.193956
H42   H     H_    0.238573 0.959470 0.607419 0.185909
H43   H     H_    0.759299 0.546166 0.629306 0.192365
H44   H     H_    0.742039 0.459888 0.610549 0.186351
H45   H     H_    0.144221 0.040656 0.439671 0.154784
H46   H     H_    0.140131 0.956537 0.427419 0.144112
H47   H     H_    0.646564 0.540307 0.445805 0.154250
H48   H     H_    0.641422 0.456161 0.431400 0.144849
H49   H     H_    0.270721 0.038630 0.404331 0.217020
H50   H     H_    0.285490 0.954154 0.421024 0.218286
H51   H     H_    0.767790 0.539840 0.400400 0.211589
H52   H     H_    0.780632 0.455369 0.414392 0.225962
H53   H     H_    0.249438 0.463868 0.616813 0.184219
H54   H     H_    0.271610 0.546628 0.638521 0.169758
H55   H     H_    0.738468 0.962944 0.603768 0.195023
H56   H     H_    0.758243 0.046035 0.625439 0.170522
H57   H     H_    0.244708 0.455023 0.379199 0.157364
H58   H     H_    0.231447 0.537487 0.368105 0.172802
H59   H     H_    0.760937 0.954468 0.393904 0.155655
H60   H     H_    0.742523 0.036605 0.376780 0.166172
H61   H     H_    0.139057 0.458663 0.344607 0.232737
H62   H     H_    0.133848 0.546090 0.352860 0.236634
H63   H     H_    0.646024 0.959011 0.337451 0.234234
H64   H     H_    0.637754 0.046396 0.343835 0.236225
H65   H     H_    0.140656 0.454310 0.443403 0.200664
H66   H     H_    0.150131 0.541948 0.465215 0.200168
H67   H     H_    0.635916 0.954180 0.423941 0.199709
H68   H     H_    0.644033 0.041401 0.447222 0.204513
H69   H     H_    0.365564 0.248395 0.898548 0.172861
H70   H     H_    0.365435 0.759169 0.898935 0.178191
H71   H     H_    0.866683 0.744324 0.900360 0.178554
H72   H     H_    0.866242 0.258630 0.900129 0.178563
H73   H     H_    0.453914 0.228529 0.069023 0.109113
H74   H     H_    0.455515 0.779051 0.069013 0.124982
H75   H     H_    0.955439 0.727578 0.071474 0.115437
H76   H     H_    0.956002 0.276146 0.071151 0.112063
H77   H     H_    0.494200 0.322444 0.899182 0.233342
H78   H     H_    0.486890 0.673689 0.899057 0.256366
H79   H     H_    0.990459 0.824149 0.899261 0.237163
H80   H     H_    0.987349 0.173791 0.899879 0.250641
H81   H     H_    0.545064 0.267648 0.923221 0.251863
H82   H     H_    0.542546 0.724453 0.923229 0.243972
H83   H     H_    0.043176 0.771707 0.920835 0.237344
H84   H     H_    0.041686 0.224516 0.920528 0.240932
H85   H     H_    0.624453 0.285645 0.093117 0.174255
H86   H     H_    0.619991 0.706730 0.091504 0.214559
H87   H     H_    0.123014 0.786649 0.090231 0.193954
H88   H     H_    0.121246 0.210213 0.089888 0.208069
O1    O     O_3   0.249990 0.249990 0.500000 -0.507463
O2    O     O_3   0.249990 0.750010 0.500000 -0.519808
O3    O     O_3   0.749990 0.749990 0.500000 -0.511611
O4    O     O_3   0.749990 0.250010 0.500000 -0.511743
O5    O     O_R   0.311270 0.366840 0.561280 -0.639844
O6    O     O_R   0.311270 0.633160 0.561280 -0.609550
O7    O     O_R   0.811270 0.866840 0.561280 -0.645018
O8    O     O_R   0.811270 0.133160 0.561280 -0.610425
O9    O     O_R   0.249990 0.133140 0.561260 -0.639880
O10   O     O_R   0.249990 0.866860 0.561260 -0.635808
O11   O     O_R   0.749990 0.633140 0.561260 -0.631911
O12   O     O_R   0.749990 0.366860 0.561260 -0.636905
O13   O     O_R   0.102520 0.280640 0.438750 -0.632085
O14   O     O_R   0.102520 0.719360 0.438750 -0.629652
O15   O     O_R   0.602520 0.780640 0.438750 -0.602684
O16   O     O_R   0.602520 0.219360 0.438750 -0.625826
O17   O     O_R   0.336190 0.219350 0.438710 -0.670474
O18   O     O_R   0.336190 0.780650 0.438710 -0.606831
O19   O     O_R   0.836190 0.719350 0.438710 -0.672517
O20   O     O_R   0.836190 0.280650 0.438710 -0.621452
O21   O     O_R   0.163790 0.219360 0.561280 -0.650230
O22   O     O_R   0.163790 0.780640 0.561280 -0.650269
O23   O     O_R   0.663790 0.719360 0.561280 -0.658134
O24   O     O_R   0.663790 0.280640 0.561280 -0.646666
O25   O     O_R   0.397470 0.280620 0.561260 -0.589740
O26   O     O_R   0.397470 0.719380 0.561260 -0.598515
O27   O     O_R   0.897470 0.780620 0.561260 -0.581737
O28   O     O_R   0.897470 0.219380 0.561260 -0.597623
O29   O     O_R   0.188730 0.366850 0.438750 -0.627875
O30   O     O_R   0.188730 0.633150 0.438750 -0.627193
O31   O     O_R   0.688730 0.866850 0.438750 -0.622008
O32   O     O_R   0.688730 0.133150 0.438750 -0.635715
O33   O     O_R   0.249980 0.133140 0.438710 -0.640819
O34   O     O_R   0.249980 0.866860 0.438710 -0.626436
O35   O     O_R   0.749980 0.633140 0.438710 -0.644045
O36   O     O_R   0.749980 0.366860 0.438710 -0.614323
O37   O     O_R   0.102500 0.280640 0.266310 -0.597190
O38   O     O_R   0.102500 0.719360 0.266310 -0.589328
O39   O     O_R   0.602500 0.780640 0.266310 -0.601792
O40   O     O_R   0.602500 0.219360 0.266310 -0.590431
O41   O     O_R   0.336220 0.219350 0.733700 -0.663402
O42   O     O_R   0.336220 0.780650 0.733700 -0.651800
O43   O     O_R   0.836220 0.719350 0.733700 -0.646296
O44   O     O_R   0.836220 0.280650 0.733700 -0.650458
O45   O     O_R   0.163750 0.219360 0.266290 -0.655781
O46   O     O_R   0.163750 0.780640 0.266290 -0.659528
O47   O     O_R   0.663750 0.719360 0.266290 -0.653395
O48   O     O_R   0.663750 0.280640 0.266290 -0.677589
O49   O     O_R   0.397490 0.280620 0.733700 -0.603694
O50   O     O_R   0.397490 0.719380 0.733700 -0.591844
O51   O     O_R   0.897490 0.780620 0.733700 -0.618585
O52   O     O_R   0.897490 0.219380 0.733700 -0.599130
Zn1   Zn    Zn3+2 0.337540 0.293760 0.587540 1.076871
Zn2   Zn    Zn3+2 0.337540 0.706240 0.587540 1.115370
Zn3   Zn    Zn3+2 0.837540 0.793760 0.587540 1.076151
Zn4   Zn    Zn3+2 0.837540 0.206240 0.587540 1.074722
Zn5   Zn    Zn3+2 0.162450 0.293770 0.412470 1.058941
Zn6   Zn    Zn3+2 0.162450 0.706230 0.412470 1.057004
Zn7   Zn    Zn3+2 0.662450 0.793770 0.412470 1.070477
Zn8   Zn    Zn3+2 0.662450 0.206230 0.412470 1.037514
Zn9   Zn    Zn3+2 0.249980 0.206220 0.412450 1.051915
Zn10  Zn    Zn3+2 0.249980 0.793780 0.412450 1.077247
Zn11  Zn    Zn3+2 0.749980 0.706220 0.412450 1.050679
Zn12  Zn    Zn3+2 0.749980 0.293780 0.412450 1.052448
Zn13  Zn    Zn3+2 0.250000 0.206220 0.587540 1.008228
Zn14  Zn    Zn3+2 0.250000 0.793780 0.587540 1.007440
Zn15  Zn    Zn3+2 0.750000 0.706220 0.587540 1.022501
Zn16  Zn    Zn3+2 0.750000 0.293780 0.587540 1.010438
C121  C     C_2   0.568823 0.347377 0.087401 0.463403
H89   H     H_    0.614414 0.360596 0.165998 0.139586
O53   O     O_2   0.519775 0.378073 0.024356 -0.509392
C122  C     C_2   0.559694 0.651345 0.087980 0.460574
H90   H     H_    0.602873 0.639101 0.167748 0.130619
O54   O     O_2   0.509553 0.621386 0.025043 -0.487056
C123  C     C_2   0.069013 0.847496 0.088862 0.418644
H91   H     H_    0.115382 0.860304 0.167441 0.135922
O55   O     O_2   0.019988 0.878525 0.027261 -0.508419
C124  C     C_2   0.065569 0.151855 0.089629 0.438400
H92   H     H_    0.113526 0.138261 0.166650 0.144019
O56   O     O_2   0.013331 0.122717 0.030679 -0.498821
C125  C     C_2   0.469392 0.306855 0.107962 0.923261
O57   O     O_2   0.427787 0.343492 0.057458 -0.552964
O58   O     O_R   0.511869 0.304443 0.213948 -0.807980
H93   H     H_    0.503867 0.335175 0.239447 0.377867
C126  C     C_2   0.463695 0.701580 0.107475 0.899133
O59   O     O_2   0.498855 0.705380 0.199293 -0.644764
O60   O     O_R   0.413442 0.661097 0.049460 -0.755047
H94   H     H_    0.411118 0.638110 0.091799 0.365371
C127  C     C_2   0.969404 0.805994 0.107926 0.930505
O61   O     O_2   0.928184 0.842766 0.057190 -0.538277
O62   O     O_R   0.011103 0.803572 0.213653 -0.818727
H95   H     H_    0.003150 0.834525 0.238824 0.375921
C128  C     C_2   0.965895 0.197836 0.106596 0.922357
O63   O     O_2   0.005781 0.197919 0.200191 -0.627828
O64   O     O_R   0.911733 0.159811 0.046038 -0.740295
H96   H     H_    0.911156 0.135157 0.088378 0.379899
C129  C     C_2   0.556804 0.266611 0.692630 0.462460
H97   H     H_    0.583376 0.301550 0.700231 0.055840
O65   O     O_2   0.553135 0.259561 0.754837 -0.497795
C130  C     C_2   0.503974 0.662687 0.602452 0.450981
H98   H     H_    0.472884 0.639620 0.532954 0.065612
O66   O     O_2   0.524667 0.641846 0.679403 -0.509586
C131  C     C_2   0.056422 0.771190 0.691602 0.447892
H99   H     H_    0.079116 0.806873 0.693264 0.058459
O67   O     O_2   0.056502 0.765033 0.757845 -0.515575
C132  C     C_2   0.058159 0.228669 0.691636 0.409493
H100  H     H_    0.091553 0.197400 0.703534 0.075708
O68   O     O_2   0.046386 0.229579 0.745549 -0.509888
C133  C     C_2   0.520309 0.175883 0.640400 0.894411
O69   O     O_2   0.470163 0.167495 0.632723 -0.625131
O70   O     O_R   0.576934 0.139506 0.690348 -0.784663
H101  H     H_    0.569862 0.108341 0.715924 0.361301
C134  C     C_2   0.562783 0.741784 0.711901 1.024741
O71   O     O_2   0.530603 0.739812 0.738052 -0.480799
O72   O     O_R   0.632924 0.764039 0.783684 -0.760376
H102  H     H_    0.656230 0.773436 0.759229 0.297167
C135  C     C_2   0.022658 0.679183 0.647630 0.887995
O73   O     O_2   0.977549 0.673908 0.651269 -0.593779
O74   O     O_R   0.073585 0.639592 0.685833 -0.803826
H103  H     H_    0.067520 0.609375 0.714344 0.358213
C136  C     C_2   0.023231 0.319783 0.650170 0.910635
O75   O     O_2   0.966089 0.334579 0.620695 -0.585180
O76   O     O_R   0.087309 0.347393 0.730197 -0.758075
H104  H     H_    0.133770 0.329658 0.759557 0.321500
C137  C     C_2   0.344641 0.231629 0.298727 0.523980
H105  H     H_    0.319240 0.266392 0.294615 0.106283
O77   O     O_2   0.310731 0.206735 0.219089 -0.495921
C138  C     C_2   0.414520 0.841739 0.419071 0.536456
H106  H     H_    0.394358 0.831386 0.345187 0.088425
O78   O     O_2   0.385298 0.878334 0.420623 -0.498699
C139  C     C_2   0.846089 0.726019 0.301250 0.531445
H107  H     H_    0.819209 0.761087 0.292621 0.107114
O79   O     O_2   0.813421 0.698601 0.224887 -0.485106
C140  C     C_2   0.844643 0.269254 0.299220 0.580283
H108  H     H_    0.817568 0.235408 0.294044 0.026754
O80   O     O_2   0.812280 0.293987 0.219946 -0.510756
C141  C     C_2   0.490698 0.158631 0.884378 1.002306
O81   O     O_2   0.491931 0.111617 0.892698 -0.576354
O82   O     O_R   0.501572 0.180382 0.826493 -0.726695
H109  H     H_    0.514767 0.153186 0.802089 0.402968
C142  C     C_2   0.496219 0.834147 0.880089 0.892329
O83   O     O_2   0.467818 0.876397 0.841524 -0.555953
O84   O     O_R   0.540151 0.812086 0.869764 -0.762160
H110  H     H_    0.545748 0.835367 0.831328 0.395092
C143  C     C_2   0.995399 0.664120 0.880969 0.896048
O85   O     O_2   0.962530 0.623860 0.835655 -0.570813
O86   O     O_R   0.045185 0.683088 0.879494 -0.774296
H111  H     H_    0.052426 0.658599 0.844098 0.390910
C144  C     C_2   0.995924 0.333857 0.879405 0.880439
O87   O     O_2   0.965511 0.375177 0.836928 -0.567352
O88   O     O_R   0.041857 0.312087 0.872491 -0.774368
H112  H     H_    0.046845 0.334803 0.832838 0.404479
C145  C     C_2   0.411535 0.157043 0.411077 0.465347
H113  H     H_    0.396687 0.145587 0.450628 0.137662
O89   O     O_2   0.413033 0.123333 0.365685 -0.489450
C146  C     C_2   0.500960 0.840151 0.609605 0.423823
H114  H     H_    0.550490 0.863367 0.660001 0.095291
O90   O     O_2   0.462617 0.839751 0.625819 -0.538048
C147  C     C_2   0.916825 0.654686 0.422436 0.477987
H115  H     H_    0.904357 0.644497 0.465661 0.113127
O91   O     O_2   0.918681 0.619708 0.379310 -0.487466
C148  C     C_2   0.916620 0.343173 0.419955 0.571744
H116  H     H_    0.966449 0.365409 0.477154 0.048268
O92   O     O_2   0.857928 0.365497 0.368998 -0.454078
C149  C     C_2   0.450043 0.238743 0.295326 1.029437
O93   O     O_2   0.425340 0.282528 0.264657 -0.634370
O94   O     O_R   0.448174 0.204942 0.233803 -0.735726
H117  H     H_    0.423153 0.220698 0.164716 0.343102
C150  C     C_2   0.550684 0.854192 0.483885 0.942100
O95   O     O_2   0.508270 0.857767 0.389904 -0.612426
O96   O     O_R   0.604471 0.891921 0.548402 -0.792370
H118  H     H_    0.601920 0.920488 0.508201 0.341899
C151  C     C_2   0.951040 0.733432 0.297475 1.031935
O97   O     O_2   0.924162 0.776421 0.262685 -0.630707
O98   O     O_R   0.951500 0.698488 0.239565 -0.731053
H119  H     H_    0.927089 0.713034 0.169917 0.346485
C152  C     C_2   0.949799 0.262113 0.295383 1.043775
O99   O     O_2   0.926140 0.218182 0.264624 -0.608297
O100  O     O_R   0.946803 0.296481 0.233667 -0.752951
H120  H     H_    0.921547 0.281089 0.164160 0.343939
C153  C     C_2   0.374077 0.055767 0.549138 0.951333
O101  O     O_2   0.407216 0.074561 0.633940 -0.610463
O102  O     O_R   0.405261 0.056253 0.510726 -0.730032
H121  H     H_    0.457153 0.070037 0.562639 0.356146
C154  C     C_2   0.383862 0.948411 0.577497 1.010151
O103  O     O_2   0.405534 0.924582 0.652474 -0.571687
O104  O     O_R   0.431473 0.956088 0.566442 -0.709049
H122  H     H_    0.483527 0.944765 0.629606 0.353228
C155  C     C_2   0.872954 0.555516 0.544383 0.922508
O105  O     O_2   0.901590 0.581990 0.620476 -0.575360
O106  O     O_R   0.909284 0.547253 0.514552 -0.746352
H123  H     H_    0.959832 0.563361 0.564141 0.352534
C156  C     C_2   0.881306 0.449128 0.568602 0.998261
O107  O     O_2   0.918133 0.449366 0.661200 -0.574745
O108  O     O_R   0.913721 0.435176 0.534813 -0.713072
H124  H     H_    0.968658 0.429997 0.594202 0.374843
C157  C     C_2   0.124776 0.056473 0.309940 0.937081
O109  O     O_2   0.142336 0.055396 0.263182 -0.581101
O110  O     O_R   0.060033 0.081261 0.266253 -0.775944
H125  H     H_    0.031761 0.095195 0.194696 0.374453
C158  C     C_2   0.130893 0.947190 0.305365 0.945197
O111  O     O_2   0.155516 0.949716 0.268095 -0.570167
O112  O     O_R   0.062357 0.924810 0.248923 -0.799470
H126  H     H_    0.036967 0.914407 0.176661 0.389903
C159  C     C_2   0.623160 0.556822 0.312980 0.929160
O113  O     O_2   0.637956 0.555438 0.262778 -0.576350
O114  O     O_R   0.560352 0.582862 0.273933 -0.791777
H127  H     H_    0.531219 0.597914 0.202833 0.365561
C160  C     C_2   0.629283 0.447385 0.306449 0.953153
O115  O     O_2   0.652081 0.450561 0.266730 -0.563585
O116  O     O_R   0.561398 0.424442 0.251953 -0.800855
H128  H     H_    0.535487 0.413731 0.179526 0.386562
C161  C     C_2   0.623549 0.185720 0.098233 0.499127
H129  H     H_    0.671644 0.177107 0.179247 0.072100
O117  O     O_2   0.631920 0.190753 0.040917 -0.530619
C162  C     C_2   0.624745 0.813152 0.092198 0.545004
H130  H     H_    0.629567 0.845322 0.059476 0.115302
O118  O     O_2   0.679833 0.787715 0.159361 -0.602341
C163  C     C_2   0.122151 0.680453 0.095561 0.541657
H131  H     H_    0.125510 0.646103 0.064927 0.111954
O119  O     O_2   0.178604 0.704657 0.162527 -0.596809
C164  C     C_2   0.123428 0.316038 0.093264 0.544754
H132  H     H_    0.127320 0.348828 0.060566 0.116939
O120  O     O_2   0.179412 0.291606 0.161400 -0.605221
C165  C     C_2   0.356628 0.445531 0.510552 0.974325
O121  O     O_2   0.359622 0.420442 0.456881 -0.636271
O122  O     O_R   0.419933 0.451767 0.615660 -0.804453
H133  H     H_    0.464141 0.433758 0.637814 0.351568
C166  C     C_2   0.341883 0.556586 0.479033 0.930828
O123  O     O_2   0.329977 0.582969 0.413004 -0.629652
O124  O     O_R   0.413682 0.550615 0.575429 -0.760741
H134  H     H_    0.451033 0.562437 0.575751 0.364068
C167  C     C_2   0.869931 0.948229 0.537279 0.959171
O125  O     O_2   0.879575 0.916701 0.497914 -0.633317
O126  O     O_R   0.929707 0.964702 0.638468 -0.818683
H135  H     H_    0.977300 0.947386 0.670997 0.352478
C168  C     C_2   0.851478 0.058327 0.495274 0.945561
O127  O     O_2   0.847259 0.074906 0.428669 -0.636277
O128  O     O_R   0.915550 0.066703 0.599364 -0.762170
H136  H     H_    0.953842 0.086647 0.609289 0.346011
C169  C     C_2   0.357288 0.441437 0.706657 0.477257
H137  H     H_    0.409635 0.444619 0.732182 0.139356
O129  O     O_2   0.353710 0.414247 0.757382 -0.542115
C170  C     C_2   0.376705 0.548427 0.696794 0.524699
H138  H     H_    0.418486 0.530644 0.705264 0.166798
O130  O     O_2   0.394900 0.582141 0.758141 -0.525269
C171  C     C_2   0.848360 0.941615 0.704255 0.454651
H139  H     H_    0.901044 0.941853 0.730405 0.132588
O131  O     O_2   0.842556 0.917590 0.755458 -0.523418
C172  C     C_2   0.867863 0.049327 0.700869 0.535258
H140  H     H_    0.913833 0.032109 0.718779 0.164862
O132  O     O_2   0.879832 0.083434 0.757518 -0.534995
C173  C     C_2   0.539369 0.150122 0.107473 0.428977
H141  H     H_    0.490378 0.148172 0.091784 0.091966
O133  O     O_2   0.584946 0.115739 0.160265 -0.564387
C174  C     C_2   0.545063 0.850505 0.107225 0.394910
H142  H     H_    0.493333 0.858282 0.082566 0.084866
O134  O     O_2   0.596434 0.879379 0.171976 -0.562474
C175  C     C_2   0.036763 0.650346 0.104630 0.397130
H143  H     H_    0.983896 0.646153 0.078113 0.091528
O135  O     O_2   0.084929 0.619399 0.168982 -0.553872
C176  C     C_2   0.040883 0.350236 0.105302 0.394288
H144  H     H_    0.988453 0.356500 0.079381 0.089951
O136  O     O_2   0.090774 0.380008 0.170142 -0.560204

loop_
_geom_bond_atom_site_label_1
_geom_bond_atom_site_label_2
_ccdc_geom_bond_type
O2    Zn2   S    
C29   H13   S    
C163  H131  S    
C37   C145  S    
C144  O87   D    
C57   H25   S    
C127  O62   S    
O58   H93   S    
C102  O38   A    
C90   O6    A    
O52   Zn4   S    
C79   C87   S    
C25   C133  S    
C128  O63   D    
C63   H43   S    
C77   C89   S    
O49   Zn1   S    
C4    O24   A    
C112  H4    S    
O51   Zn3   S    
C155  O106  S    
C109  C141  S    
C1    O13   A    
C84   H60   S    
C95   H55   S    
C32   C52   S    
C58   C150  S    
C91   O7    A    
C35   H19   S    
C93   C169  S    
C114  C174  S    
C174  H142  S    
C169  O129  D    
C34   C42   S    
C70   C74   S    
C43   C47   S    
C18   C118  S    
C115  C175  S    
C69   C157  S    
C173  O133  D    
C81   C165  S    
C159  O114  S    
C80   C88   S    
O3    Zn11  S    
C143  O86   S    
O3    Zn15  S    
C59   C151  S    
C47   O27   A    
C25   C29   S    
C25   C129  S    
C90   O30   A    
C27   C31   S    
O72   H102  S    
C8    H84   S    
C25   C41   S    
C12   C108  S    
C140  H108  S    
C30   H10   S    
C132  H100  S    
C137  H105  S    
C28   C44   S    
C103  O39   A    
C68   C156  S    
C19   C127  S    
C80   C92   S    
C101  O45   A    
C168  O127  D    
C21   C121  S    
C78   C82   S    
O64   H96   S    
C16   C20   S    
C82   H58   S    
O11   Zn15  S    
C13   C21   S    
C45   O17   A    
C175  O135  D    
C18   C126  S    
C34   C54   S    
C98   O10   A    
C113  C161  S    
C153  O101  D    
C15   C115  S    
C36   C44   S    
C3    O23   A    
O98   H119  S    
C20   C120  S    
O25   Zn1   S    
C23   H87   S    
O36   Zn12  S    
O37   Zn5   S    
C138  H106  S    
C54   H34   S    
C87   H67   S    
O94   H117  S    
C76   C100  S    
C120  H72   S    
C154  O103  D    
C4    C49   S    
C67   H51   S    
C106  O42   A    
C50   C54   S    
C33   H29   S    
C157  O109  D    
O18   Zn10  S    
C124  O56   D    
C109  H1    S    
C52   C56   S    
C78   C94   S    
C49   C53   S    
C93   H53   S    
C161  O117  D    
C51   C55   S    
O42   Zn14  S    
C69   C70   S    
C164  O120  D    
C98   O34   A    
O13   Zn5   S    
C127  O61   D    
C5    C21   S    
O4    Zn8   S    
C115  C163  S    
C134  O71   D    
O88   H112  S    
C171  O131  D    
C41   C45   S    
C64   C76   S    
C60   H28   S    
C158  O111  D    
C37   C137  S    
C37   C57   S    
C44   C48   S    
C152  O100  S    
C6    C22   S    
C79   C83   S    
C53   H33   S    
C161  H129  S    
C40   C60   S    
C26   C130  S    
C18   H74   S    
C95   C96   S    
C118  H70   S    
O32   Zn8   S    
O116  H128  S    
C63   H39   S    
C56   H36   S    
C148  H116  S    
C74   C98   S    
C29   C49   S    
C85   C86   S    
C55   H35   S    
C163  O119  D    
C108  O44   A    
C46   O26   A    
O29   Zn5   S    
C5    H81   S    
C48   O20   A    
C22   C122  S    
C88   H64   S    
C9    C105  S    
O106  H123  S    
C111  C143  S    
C49   C57   S    
C146  H114  S    
C22   H86   S    
C57   C149  S    
C135  O74   S    
C31   H11   S    
C52   C60   S    
C26   C134  S    
C29   H9    S    
O114  H127  S    
C30   H14   S    
C7    H83   S    
C114  C162  S    
C35   C43   S    
C110  C114  S    
C79   C91   S    
C100  O36   A    
O2    Zn10  S    
O39   Zn7   S    
C77   C85   S    
C71   H47   S    
C121  H89   S    
C72   H48   S    
O50   Zn2   S    
O3    Zn7   S    
C160  O116  S    
C3    C50   S    
C130  O66   D    
C137  O77   D    
C85   H65   S    
C24   C124  S    
C55   H23   S    
C172  H140  S    
O30   Zn6   S    
C122  H90   S    
C95   C171  S    
O20   Zn12  S    
C33   H17   S    
C176  H144  S    
C36   H32   S    
C5    H77   S    
C38   C146  S    
C104  O40   A    
C34   H18   S    
O5    Zn1   S    
C5    C9    S    
C126  O59   D    
C83   C84   S    
C8    C12   S    
C75   C99   S    
C125  O57   D    
O44   Zn16  S    
C117  H69   S    
C94   C170  S    
C162  H130  S    
C26   C30   S    
C131  O67   D    
C27   C131  S    
C8    H80   S    
C67   C75   S    
C112  C116  S    
C26   C42   S    
C86   H62   S    
O19   Zn11  S    
C92   O32   A    
C85   H61   S    
C64   H44   S    
C40   C148  S    
C31   C51   S    
C170  H138  S    
O16   Zn8   S    
O1    Zn1   S    
C23   C123  S    
C68   C76   S    
C83   H59   S    
C14   C22   S    
C81   H57   S    
C71   C72   S    
C155  O105  D    
C14   C103  S    
C63   C75   S    
C7    C23   S    
C28   C136  S    
C8    C24   S    
O33   Zn9   S    
C37   C41   S    
C61   C62   S    
C69   H45   S    
C150  O96   S    
C10   C106  S    
C2    O22   A    
C63   C64   S    
C16   C101  S    
C40   C44   S    
C47   O19   A    
C100  O12   A    
C116  C176  S    
C169  H137  S    
C123  H91   S    
O38   Zn6   S    
C117  H5    S    
C166  O123  D    
C59   H27   S    
C119  H7    S    
C87   C88   S    
C159  O113  D    
C103  O47   A    
O24   Zn16  S    
C12   C112  S    
C80   C84   S    
C101  O37   A    
C143  O85   D    
C34   H30   S    
O96   H118  S    
C78   C90   S    
C15   C19   S    
C145  O89   D    
O21   Zn13  S    
C142  O83   D    
C38   C138  S    
C45   O25   A    
C149  O94   S    
C140  O80   D    
C167  O126  S    
O12   Zn16  S    
O4    Zn12  S    
C132  O68   D    
C67   C155  S    
C2    O14   A    
C42   C46   S    
C133  O70   S    
C38   C58   S    
C147  H115  S    
O45   Zn9   S    
C165  O122  S    
O27   Zn3   S    
C62   H38   S    
C69   C73   S    
C28   C132  S    
C141  O82   S    
C92   O8    A    
C17   C117  S    
C166  O124  S    
C30   C50   S    
C19   C119  S    
C171  H139  S    
C144  O88   S    
O22   Zn14  S    
C66   C154  S    
C35   H31   S    
C16   C116  S    
C156  O107  D    
C128  O64   S    
C9    C109  S    
C151  O98   S    
C111  H3    S    
C67   C68   S    
C50   C58   S    
C89   O29   A    
O102  H121  S    
O8    Zn4   S    
C138  O78   D    
O82   H109  S    
C32   H16   S    
C83   C167  S    
C61   C73   S    
C173  H141  S    
C11   C111  S    
C24   H88   S    
C65   C153  S    
O128  H136  S    
C65   H49   S    
C102  O46   A    
C80   C96   S    
O9    Zn13  S    
O124  H134  S    
C79   C95   S    
C36   C56   S    
C61   H37   S    
O48   Zn12  S    
C139  H107  S    
C28   C32   S    
C39   C59   S    
C64   H40   S    
O31   Zn7   S    
C147  O91   D    
C13   C104  S    
C82   C166  S    
O17   Zn9   S    
C31   H15   S    
C54   H22   S    
C99   O11   A    
C86   H66   S    
C97   O9    A    
O60   H94   S    
C89   O5    A    
C152  O99   D    
O2    Zn6   S    
C40   C140  S    
C105  O49   A    
C96   H56   S    
O6    Zn2   S    
C122  O54   D    
C6    C10   S    
C148  O92   D    
O104  H122  S    
C120  H8    S    
C38   C42   S    
C13   C17   S    
O3    Zn3   S    
C20   C128  S    
C27   C135  S    
C107  O43   A    
C33   C41   S    
C39   C147  S    
C105  O41   A    
O74   H103  S    
C14   C114  S    
C110  H2    S    
C87   H63   S    
C68   H52   S    
C62   H42   S    
O14   Zn6   S    
C77   C93   S    
C146  O90   D    
C10   C110  S    
C53   H21   S    
C65   C66   S    
C99   O35   A    
C135  O73   D    
C71   C159  S    
C1    C52   S    
O35   Zn11  S    
C2    C51   S    
C97   O33   A    
O70   H101  S    
C56   H24   S    
C27   C43   S    
C129  H97   S    
O112  H126  S    
C153  O102  S    
C3    O15   A    
C62   C74   S    
C66   C74   S    
C131  H99   S    
C19   H75   S    
C93   C94   S    
C123  O55   D    
C9    C117  S    
C136  O75   D    
C14   C18   S    
C17   H73   S    
O108  H124  S    
O76   H104  S    
C11   C119  S    
C162  O118  D    
C81   C82   S    
C84   C168  S    
O47   Zn11  S    
C7    C11   S    
C154  O104  S    
C172  O132  D    
C61   H41   S    
O34   Zn10  S    
C107  O51   A    
O43   Zn15  S    
C6    H82   S    
C70   H46   S    
C124  H92   S    
C176  O136  D    
C157  O110  S    
C65   C73   S    
O7    Zn3   S    
C21   H85   S    
C168  O128  S    
C164  H132  S    
O2    Zn14  S    
C12   C120  S    
C110  C142  S    
O86   H111  S    
C134  O72   S    
C60   C152  S    
C119  H71   S    
O110  H125  S    
C96   C172  S    
C77   C81   S    
C158  O112  S    
O15   Zn7   S    
C109  C113  S    
C78   C86   S    
C15   C23   S    
C142  O84   S    
C72   C160  S    
C156  O108  S    
O4    Zn16  S    
C33   C53   S    
C35   C55   S    
C170  O130  D    
C6    H78   S    
O62   H95   S    
C39   C43   S    
C129  O65   D    
C4    O16   A    
O46   Zn10  S    
C10   C118  S    
C70   C158  S    
C175  H143  S    
O26   Zn2   S    
C136  O76   S    
O23   Zn15  S    
C72   C76   S    
C36   H20   S    
C150  O95   D    
C48   O28   A    
C94   H54   S    
C174  O134  D    
C139  O79   D    
C73   C97   S    
O1    Zn13  S    
C121  O53   D    
C11   C107  S    
O41   Zn13  S    
C108  O52   A    
C51   C59   S    
C32   H12   S    
C130  H98   S    
C160  O115  D    
O4    Zn4   S    
C66   H50   S    
C112  C144  S    
C58   H26   S    
O28   Zn4   S    
O40   Zn8   S    
C116  C164  S    
C145  H113  S    
C104  O48   A    
C46   O18   A    
O126  H135  S    
C126  O60   S    
C149  O93   D    
C71   C75   S    
O84   H110  S    
C167  O125  D    
C151  O97   D    
C17   C125  S    
O1    Zn9   S    
C125  O58   S    
C15   C102  S    
C7    H79   S    
C133  O69   D    
C16   C24   S    
C39   C139  S    
O122  H133  S    
C1    O21   A    
C88   H68   S    
O10   Zn14  S    
C165  O121  D    
C91   O31   A    
C106  O50   A    
C111  C115  S    
C118  H6    S    
C141  O81   D    
O1    Zn5   S    
C20   H76   S    
C13   C113  S    
O100  H120  S    
C113  C173  S    
