data_mof_unit_4382.cif
_audit_creation_date              2012-12-10T18:15:29-0500
_audit_creation_method            fapswitch 2.2
_symmetry_space_group_name_H-M    P1
_symmetry_Int_Tables_number       1
_space_group_crystal_system       triclinic
_cell_length_a                    18.318421
_cell_length_b                    18.323353
_cell_length_c                    39.845385
_cell_angle_alpha                 89.988454
_cell_angle_beta                  90.012895
_cell_angle_gamma                 89.967508
_cell_volume                      13374.2957328

loop_
_atom_site_label
_atom_site_type_symbol
_atom_type_description
_atom_site_fract_x
_atom_site_fract_y
_atom_site_fract_z
_atom_type_partial_charge
C1    C     C_R   0.964435 0.556819 0.430830 -0.003209
C2    C     C_R   0.565994 0.013420 0.068687 -0.027540
C3    C     C_R   0.313891 0.739603 0.731459 -0.195710
C4    C     C_R   0.261465 0.314918 0.267627 -0.212442
C5    C     C_R   0.738980 0.685565 0.731913 -0.195566
C6    C     C_R   0.313056 0.740418 0.269281 -0.192577
C7    C     C_R   0.685923 0.260571 0.731575 -0.195576
C8    C     C_R   0.196367 0.696196 0.249928 0.017367
C9    C     C_R   0.803750 0.303695 0.749989 0.012148
C10   C     C_R   0.303610 0.196147 0.250093 0.020194
C11   C     C_R   0.696349 0.803793 0.749962 0.008984
C12   C     C_R   0.803659 0.303771 0.249935 0.007102
C13   C     C_R   0.964639 0.444829 0.931371 -0.027428
C14   C     C_R   0.196295 0.696254 0.750055 0.013917
C15   C     C_R   0.696359 0.803824 0.250076 0.020720
C16   C     C_R   0.303640 0.196211 0.749967 0.009359
C17   C     C_R   0.196158 0.303626 0.749906 0.023940
C18   C     C_R   0.803757 0.696325 0.250010 0.007776
C19   C     C_R   0.303623 0.803802 0.749975 0.017008
C20   C     C_R   0.696171 0.196387 0.249902 0.009288
C21   C     C_R   0.803816 0.696363 0.749906 0.021800
C22   C     C_R   0.196229 0.303663 0.250031 0.007501
C23   C     C_R   0.696419 0.196153 0.749918 0.016227
C24   C     C_R   0.035624 0.557943 0.069182 -0.008755
C25   C     C_R   0.303870 0.803561 0.249876 0.007648
C26   C     C_R   0.000029 0.499981 0.377922 -0.263350
C27   C     C_R   0.999988 0.499940 0.621795 -0.285573
C28   C     C_R   0.499958 0.999990 0.378203 -0.285994
C29   C     C_R   0.499984 0.000030 0.622078 -0.263013
C30   C     C_R   0.500108 0.000342 0.878006 -0.289913
C31   C     C_R   0.499940 0.001284 0.121645 -0.281841
C32   C     C_R   0.001965 0.499574 0.878259 -0.281623
C33   C     C_R   0.000745 0.500125 0.122049 -0.288093
C34   C     C_3   0.932880 0.622152 0.449476 -0.371996
C35   C     C_R   0.563792 0.022208 0.930908 -0.011639
C36   C     C_3   0.993519 0.672498 0.462549 -0.326447
C37   C     C_3   0.961722 0.737553 0.481485 -0.908714
C38   C     C_3   0.124911 0.438119 0.549876 -0.362451
C39   C     C_3   0.175039 0.499150 0.537128 -0.318962
C40   C     C_3   0.240367 0.468042 0.518148 -0.911431
C41   C     C_3   0.561481 0.875012 0.450184 -0.362487
C42   C     C_3   0.500333 0.825050 0.462956 -0.319022
C43   C     C_3   0.531319 0.759735 0.481997 -0.911439
C44   C     C_3   0.377758 0.067278 0.550514 -0.371976
C45   C     C_3   0.327335 0.006691 0.537463 -0.326458
C46   C     C_R   0.433810 0.993058 0.068549 -0.027641
C47   C     C_3   0.262284 0.038522 0.518507 -0.908730
C48   C     C_3   0.067230 0.377736 0.449477 -0.371955
C49   C     C_3   0.006603 0.327345 0.462520 -0.326449
C50   C     C_3   0.038412 0.262269 0.481455 -0.908683
C51   C     C_3   0.875059 0.561612 0.549815 -0.362497
C52   C     C_3   0.824988 0.500553 0.537048 -0.319031
C53   C     C_3   0.759671 0.531628 0.518028 -0.911448
C54   C     C_3   0.438348 0.124988 0.450125 -0.362418
C55   C     C_3   0.499481 0.174997 0.462877 -0.319061
C56   C     C_3   0.468475 0.240329 0.481881 -0.911454
C57   C     C_R   0.038757 0.556223 0.931139 -0.013713
C58   C     C_3   0.622179 0.932862 0.550526 -0.371991
C59   C     C_3   0.672569 0.993464 0.537460 -0.326482
C60   C     C_3   0.737607 0.961650 0.518509 -0.908746
C61   C     C_3   0.365419 0.964368 0.949309 -0.362695
C62   C     C_3   0.325750 0.035978 0.957588 -0.322503
C63   C     C_3   0.249089 0.022307 0.971197 -0.917829
C64   C     C_3   0.635920 0.037643 0.051326 -0.370771
C65   C     C_3   0.655154 0.116434 0.061051 -0.310652
C66   C     C_3   0.723225 0.143150 0.042709 -0.924464
C67   C     C_3   0.914291 0.392078 0.949669 -0.386983
C68   C     C_R   0.967836 0.442298 0.068934 -0.011853
C69   C     C_3   0.843195 0.430085 0.960261 -0.327347
C70   C     C_3   0.787609 0.375439 0.973851 -0.919376
C71   C     C_3   0.069341 0.622396 0.050865 -0.363751
C72   C     C_3   0.011109 0.679695 0.042466 -0.317508
C73   C     C_3   0.045398 0.749432 0.028633 -0.915802
C74   C     C_3   0.634660 0.039277 0.949165 -0.361617
C75   C     C_3   0.673307 0.968418 0.959587 -0.326009
C76   C     C_3   0.749857 0.983112 0.973117 -0.921762
C77   C     C_3   0.363921 0.969795 0.050897 -0.371097
C78   C     C_3   0.348312 0.888809 0.057636 -0.311607
C79   C     C_R   0.958837 0.552467 0.395530 0.348735
C80   C     C_3   0.279794 0.862973 0.039374 -0.921572
C81   C     C_3   0.087344 0.610672 0.949346 -0.376335
C82   C     C_3   0.160017 0.575171 0.959446 -0.326647
C83   C     C_3   0.213815 0.631563 0.973031 -0.920186
C84   C     C_3   0.934603 0.377986 0.050348 -0.368650
C85   C     C_3   0.993183 0.321359 0.041559 -0.321331
C86   C     C_3   0.959130 0.251338 0.027903 -0.917482
C87   C     C_3   0.845118 0.583803 0.377375 0.093437
C88   C     C_3   0.801305 0.642844 0.359256 -0.308602
C89   C     C_3   0.720568 0.622911 0.357152 -1.000250
C90   C     C_R   0.058156 0.467057 0.604024 0.372232
C91   C     C_3   0.099420 0.363582 0.629545 0.092455
C92   C     C_3   0.166507 0.328456 0.645649 -0.313955
C93   C     C_3   0.149954 0.251922 0.658668 -0.976001
C94   C     C_3   0.636195 0.900362 0.370541 0.092533
C95   C     C_3   0.671185 0.833307 0.354376 -0.314208
C96   C     C_3   0.747767 0.849770 0.341380 -0.974306
C97   C     C_3   0.416194 0.154944 0.622612 0.093656
C98   C     C_3   0.357117 0.198763 0.640688 -0.309198
C99   C     C_3   0.377064 0.279477 0.642777 -0.999832
C100  C     C_3   0.154921 0.416142 0.377357 0.093473
C101  C     C_R   0.532722 0.941783 0.396004 0.372250
C102  C     C_3   0.198680 0.357156 0.359191 -0.308471
C103  C     C_3   0.279407 0.377105 0.357050 -1.000007
C104  C     C_3   0.900624 0.636357 0.629415 0.092326
C105  C     C_3   0.833577 0.671564 0.645493 -0.313940
C106  C     C_3   0.850172 0.748143 0.658432 -0.976177
C107  C     C_3   0.363735 0.099634 0.370449 0.092603
C108  C     C_3   0.328757 0.166717 0.354283 -0.314238
C109  C     C_3   0.252193 0.150269 0.341247 -0.974190
C110  C     C_3   0.583732 0.845081 0.622573 0.093682
C111  C     C_3   0.642894 0.801163 0.640557 -0.309490
C112  C     C_R   0.059646 0.469241 0.568667 -0.005896
C113  C     C_R   0.447493 0.041257 0.604466 0.348730
C114  C     C_3   0.622959 0.720435 0.642573 -1.000124
C115  C     C_3   0.385471 0.874911 0.872889 0.096086
C116  C     C_3   0.315335 0.845894 0.857036 -0.316748
C117  C     C_3   0.322420 0.765480 0.847621 -0.972800
C118  C     C_3   0.665921 0.929095 0.114944 0.069370
C119  C     C_3   0.663412 0.882841 0.146861 -0.280968
C120  C     C_3   0.703851 0.810682 0.142308 -1.011360
C121  C     C_3   0.993934 0.316674 0.886263 0.059401
C122  C     C_3   0.051997 0.305421 0.859101 -0.278503
C123  C     C_3   0.097581 0.237272 0.865931 -1.010684
C124  C     C_R   0.041236 0.447476 0.395530 0.348763
C125  C     C_3   0.141793 0.591543 0.130878 0.088044
C126  C     C_3   0.179901 0.656411 0.147386 -0.304220
C127  C     C_3   0.254780 0.635401 0.161115 -0.975871
C128  C     C_3   0.614653 0.125934 0.872337 0.092141
C129  C     C_3   0.685128 0.154883 0.856798 -0.314700
C130  C     C_3   0.678378 0.235325 0.847366 -0.961900
C131  C     C_3   0.334300 0.074841 0.115725 0.066711
C132  C     C_3   0.338541 0.120112 0.147876 -0.283039
C133  C     C_3   0.299418 0.193175 0.143956 -1.008512
C134  C     C_3   0.011903 0.675554 0.877716 0.141371
C135  C     C_R   0.941820 0.532781 0.603993 0.372301
C136  C     C_3   0.042269 0.737431 0.856084 -0.316960
C137  C     C_3   0.112480 0.769127 0.870747 -0.853408
C138  C     C_3   0.857060 0.411477 0.128347 0.115154
C139  C     C_3   0.815827 0.349724 0.145838 -0.322609
C140  C     C_3   0.806464 0.283277 0.123096 -0.833311
C141  C     C_R   0.467166 0.058200 0.395975 0.372157
C142  C     C_R   0.552465 0.958824 0.604469 0.348774
C143  C     C_R   0.438325 0.975504 0.895827 0.371627
C144  C     C_R   0.566580 0.002410 0.103699 0.391065
C145  C     C_R   0.973913 0.439265 0.896245 0.392394
C146  C     C_R   0.037158 0.556254 0.104496 0.372636
C147  C     C_R   0.561931 0.025696 0.895667 0.372089
C148  C     C_R   0.530483 0.940304 0.431360 -0.005817
C149  C     C_R   0.433273 0.001686 0.103692 0.392182
C150  C     C_R   0.031960 0.559414 0.895908 0.351368
C151  C     C_R   0.964852 0.444137 0.104234 0.374628
C152  C     C_R   0.000046 0.499939 0.448433 -0.041121
C153  C     C_R   0.999991 0.499877 0.551082 -0.047570
C154  C     C_R   0.499923 0.000005 0.448916 -0.047561
C155  C     C_R   0.499964 0.000063 0.551565 -0.041090
C156  C     C_R   0.500100 0.001607 0.948553 -0.044738
C157  C     C_R   0.499933 0.003475 0.050930 -0.047871
C158  C     C_R   0.001402 0.500896 0.948882 -0.035524
C159  C     C_R   0.443107 0.035687 0.569165 -0.003225
C160  C     C_R   0.001991 0.500160 0.051451 -0.047767
C161  C     C_1   0.000031 0.499907 0.484663 -0.026039
C162  C     C_1   0.000013 0.499887 0.514848 -0.024516
C163  C     C_1   0.499931 0.000028 0.485150 -0.024511
C164  C     C_1   0.499942 0.000048 0.515335 -0.025978
C165  C     C_1   0.500032 0.002523 0.984671 -0.027207
C166  C     C_1   0.500044 0.003103 0.014809 -0.038748
C167  C     C_1   0.001697 0.500892 0.985080 -0.029447
C168  C     C_1   0.001917 0.500589 0.015252 -0.033741
C169  C     C_R   0.499991 0.999995 0.341033 0.840746
C170  C     C_R   0.035661 0.443086 0.430830 -0.003208
C171  C     C_R   0.499996 0.000008 0.659059 0.938788
C172  C     C_R   0.000008 0.499997 0.340943 0.939407
C173  C     C_R   0.999994 0.499989 0.658965 0.839978
C174  C     C_R   0.000602 0.499899 0.841065 0.899551
C175  C     C_R   0.000008 0.500030 0.159055 0.846129
C176  C     C_R   0.500020 0.000028 0.840971 0.841975
C177  C     C_R   0.499985 0.000194 0.158892 0.854683
C178  C     C_R   0.359785 0.140117 0.250030 0.779031
C179  C     C_R   0.640194 0.859859 0.749988 0.781151
C180  C     C_R   0.859806 0.359847 0.249981 0.774702
C181  C     C_R   0.940326 0.530527 0.568637 -0.005907
C182  C     C_R   0.140197 0.640143 0.750026 0.788702
C183  C     C_R   0.640203 0.859872 0.250028 0.779137
C184  C     C_R   0.359806 0.140147 0.749987 0.781046
C185  C     C_R   0.140212 0.640139 0.249973 0.784219
C186  C     C_R   0.859814 0.359839 0.750008 0.787612
C187  C     C_R   0.359808 0.859842 0.750002 0.782493
C188  C     C_R   0.640136 0.140204 0.249970 0.781837
C189  C     C_R   0.859883 0.640216 0.749953 0.780293
C190  C     C_R   0.140163 0.359823 0.250009 0.780663
C191  C     C_R   0.640206 0.140149 0.749989 0.782474
C192  C     C_R   0.469367 0.059690 0.431332 -0.005814
C193  C     C_R   0.359874 0.859774 0.249961 0.782849
C194  C     C_R   0.140108 0.359780 0.749957 0.781277
C195  C     C_R   0.859839 0.640180 0.250004 0.779980
C196  C     C_R   0.240742 0.812715 0.230451 -0.192655
C197  C     C_R   0.761005 0.185587 0.768140 -0.194092
C198  C     C_R   0.184953 0.238457 0.232410 -0.184144
C199  C     C_R   0.814639 0.761074 0.767965 -0.200147
C200  C     C_R   0.757537 0.188994 0.229177 -0.186724
C201  C     C_R   0.239294 0.814110 0.768412 -0.192695
C202  C     C_R   0.814863 0.761403 0.232259 -0.185329
C203  C     C_R   0.556837 0.964434 0.569170 -0.003276
C204  C     C_R   0.185058 0.238622 0.767705 -0.203114
C205  C     C_R   0.238597 0.185161 0.767763 -0.187016
C206  C     C_R   0.761445 0.814972 0.232342 -0.204290
C207  C     C_R   0.186020 0.760453 0.768579 -0.198415
C208  C     C_R   0.811113 0.242335 0.229260 -0.207900
C209  C     C_R   0.761143 0.814572 0.767984 -0.187713
C210  C     C_R   0.238356 0.184871 0.232499 -0.203917
C211  C     C_R   0.814284 0.239246 0.768306 -0.196062
C212  C     C_R   0.187136 0.759401 0.230570 -0.199224
C213  C     C_R   0.739392 0.314053 0.731569 -0.190961
C214  C     C_R   0.436487 0.980193 0.931031 -0.012228
C215  C     C_R   0.259591 0.686941 0.269273 -0.193881
C216  C     C_R   0.685461 0.739011 0.731983 -0.211868
C217  C     C_R   0.314910 0.261392 0.267680 -0.196572
C218  C     C_R   0.260428 0.686120 0.731460 -0.191067
C219  C     C_R   0.742210 0.311241 0.270597 -0.192048
C220  C     C_R   0.314744 0.261241 0.732201 -0.211506
C221  C     C_R   0.685214 0.738694 0.267781 -0.196485
C222  C     C_R   0.738663 0.685174 0.267723 -0.212843
C223  C     C_R   0.261231 0.314695 0.732141 -0.195598
C224  C     C_R   0.688749 0.257773 0.270602 -0.194023
H1    H     H_    0.232516 0.861161 0.215331 0.164788
H2    H     H_    0.771180 0.865016 0.218585 0.160858
H3    H     H_    0.665121 0.120142 0.088504 0.254350
H4    H     H_    0.681774 0.000640 0.057627 0.195060
H5    H     H_    0.630641 0.035001 0.023865 0.208476
H6    H     H_    0.771702 0.336167 0.953915 0.266298
H7    H     H_    0.810461 0.344769 0.995453 0.260026
H8    H     H_    0.737973 0.404957 0.982316 0.251093
H9    H     H_    0.854440 0.471665 0.979855 0.218423
H10   H     H_    0.818787 0.458295 0.938232 0.228613
H11   H     H_    0.899125 0.345054 0.933656 0.225305
H12   H     H_    0.942953 0.369025 0.971731 0.195401
H13   H     H_    0.136733 0.769506 0.782998 0.154985
H14   H     H_    0.081923 0.774443 0.047686 0.269386
H15   H     H_    0.077383 0.737761 0.005612 0.258482
H16   H     H_    0.001734 0.789161 0.022293 0.251343
H17   H     H_    0.972402 0.657283 0.023623 0.211995
H18   H     H_    0.979828 0.693710 0.065501 0.240728
H19   H     H_    0.112859 0.648216 0.066172 0.222246
H20   H     H_    0.096962 0.603613 0.027724 0.193194
H21   H     H_    0.784209 0.008999 0.953476 0.267942
H22   H     H_    0.747553 0.019397 0.995333 0.267235
H23   H     H_    0.775658 0.930785 0.980678 0.250602
H24   H     H_    0.858306 0.235312 0.213212 0.163753
H25   H     H_    0.640939 0.939707 0.979112 0.215223
H26   H     H_    0.678110 0.931692 0.937475 0.235486
H27   H     H_    0.672388 0.071315 0.933132 0.229221
H28   H     H_    0.623645 0.074755 0.971102 0.177494
H29   H     H_    0.231970 0.896563 0.046822 0.265790
H30   H     H_    0.287615 0.866525 0.011794 0.260757
H31   H     H_    0.268611 0.805182 0.046004 0.253349
H32   H     H_    0.395466 0.855356 0.049115 0.212835
H33   H     H_    0.340772 0.879753 0.085001 0.250168
H34   H     H_    0.316941 0.003389 0.059112 0.197012
H35   H     H_    0.770643 0.864335 0.781985 0.160033
H36   H     H_    0.367489 0.978581 0.023643 0.206925
H37   H     H_    0.227187 0.672299 0.953315 0.266640
H38   H     H_    0.190626 0.660277 0.995104 0.260472
H39   H     H_    0.265002 0.603834 0.980809 0.251842
H40   H     H_    0.150635 0.532769 0.978893 0.217243
H41   H     H_    0.184979 0.548385 0.937183 0.232710
H42   H     H_    0.099956 0.658640 0.933439 0.235800
H43   H     H_    0.058471 0.632288 0.971657 0.191916
H44   H     H_    0.923942 0.225608 0.047285 0.268491
H45   H     H_    0.925744 0.262885 0.005278 0.258759
H46   H     H_    0.228489 0.134724 0.218850 0.160463
H47   H     H_    0.002975 0.212279 0.020990 0.252016
H48   H     H_    0.031092 0.344233 0.022498 0.214065
H49   H     H_    0.025276 0.307556 0.064393 0.238887
H50   H     H_    0.891510 0.351275 0.065520 0.231608
H51   H     H_    0.906588 0.397187 0.027392 0.193800
H52   H     H_    0.822918 0.577598 0.403245 0.114547
H53   H     H_    0.837637 0.531052 0.363988 0.170776
H54   H     H_    0.807097 0.695385 0.372942 0.219675
H55   H     H_    0.823203 0.650157 0.333470 0.241835
H56   H     H_    0.713445 0.570762 0.343325 0.267713
H57   H     H_    0.863771 0.230048 0.782585 0.159626
H58   H     H_    0.690493 0.666429 0.343562 0.266722
H59   H     H_    0.697059 0.617448 0.382723 0.265775
H60   H     H_    0.084384 0.331533 0.606779 0.112353
H61   H     H_    0.053318 0.361571 0.647724 0.130667
H62   H     H_    0.211121 0.325360 0.626802 0.214538
H63   H     H_    0.185420 0.362849 0.666885 0.248195
H64   H     H_    0.106526 0.254066 0.678101 0.262838
H65   H     H_    0.199874 0.228270 0.670155 0.276495
H66   H     H_    0.132094 0.216079 0.637748 0.262186
H67   H     H_    0.668276 0.915194 0.393331 0.112343
H68   H     H_    0.138491 0.767850 0.215613 0.156996
H69   H     H_    0.638322 0.946551 0.352410 0.130887
H70   H     H_    0.674199 0.788596 0.373182 0.214454
H71   H     H_    0.636736 0.814581 0.333119 0.248599
H72   H     H_    0.745703 0.893307 0.321994 0.263374
H73   H     H_    0.771312 0.799884 0.329840 0.276618
H74   H     H_    0.783671 0.867424 0.362322 0.261989
H75   H     H_    0.422457 0.177137 0.596742 0.114569
H76   H     H_    0.468938 0.162407 0.636028 0.171065
H77   H     H_    0.304580 0.192973 0.626978 0.219690
H78   H     H_    0.349763 0.176885 0.666477 0.241534
H79   H     H_    0.730150 0.363537 0.717308 0.161751
H80   H     H_    0.429209 0.286599 0.656627 0.267834
H81   H     H_    0.333519 0.309559 0.656335 0.266577
H82   H     H_    0.382570 0.302964 0.617201 0.265829
H83   H     H_    0.177187 0.422262 0.403222 0.114521
H84   H     H_    0.162372 0.468937 0.363994 0.170850
H85   H     H_    0.192942 0.304577 0.372860 0.219627
H86   H     H_    0.176697 0.349908 0.333413 0.241935
H87   H     H_    0.286476 0.429280 0.343230 0.267786
H88   H     H_    0.309443 0.333616 0.343437 0.266745
H89   H     H_    0.303001 0.382524 0.382611 0.265716
H90   H     H_    0.267847 0.638445 0.284357 0.157883
H91   H     H_    0.915639 0.668320 0.606618 0.112423
H92   H     H_    0.946754 0.638416 0.647587 0.130689
H93   H     H_    0.788932 0.674597 0.626649 0.214566
H94   H     H_    0.814698 0.637254 0.666765 0.248016
H95   H     H_    0.893631 0.746062 0.677861 0.262809
H96   H     H_    0.800277 0.771853 0.669902 0.276446
H97   H     H_    0.868008 0.783901 0.637474 0.262210
H98   H     H_    0.331626 0.084752 0.393219 0.112322
H99   H     H_    0.361641 0.053480 0.352306 0.130950
H100  H     H_    0.325714 0.211390 0.373098 0.214421
H101  H     H_    0.635430 0.729370 0.718214 0.169735
H102  H     H_    0.363228 0.185493 0.333046 0.248685
H103  H     H_    0.254286 0.106769 0.321853 0.263292
H104  H     H_    0.228655 0.200173 0.329707 0.276673
H105  H     H_    0.216265 0.132571 0.362168 0.261971
H106  H     H_    0.577322 0.823002 0.596692 0.114615
H107  H     H_    0.531062 0.837577 0.636035 0.171101
H108  H     H_    0.695368 0.807036 0.626813 0.219781
H109  H     H_    0.650363 0.822897 0.666362 0.241348
H110  H     H_    0.570859 0.713230 0.656441 0.267806
H111  H     H_    0.666550 0.690279 0.656080 0.266485
H112  H     H_    0.770554 0.135868 0.782161 0.154152
H113  H     H_    0.365122 0.271329 0.281283 0.155336
H114  H     H_    0.617372 0.697093 0.616976 0.265935
H115  H     H_    0.395425 0.844671 0.896758 0.112388
H116  H     H_    0.431780 0.864641 0.855398 0.131076
H117  H     H_    0.269426 0.852595 0.875015 0.212159
H118  H     H_    0.302732 0.878035 0.834132 0.246753
H119  H     H_    0.366757 0.757935 0.828919 0.264792
H120  H     H_    0.270469 0.746099 0.836401 0.278374
H121  H     H_    0.334344 0.732162 0.870261 0.262687
H122  H     H_    0.724045 0.938944 0.108386 0.153657
H123  H     H_    0.641690 0.897261 0.093760 0.110765
H124  H     H_    0.269482 0.636829 0.717044 0.161716
H125  H     H_    0.689141 0.913695 0.167715 0.255571
H126  H     H_    0.605703 0.871056 0.153483 0.209832
H127  H     H_    0.679485 0.778943 0.121369 0.264710
H128  H     H_    0.699585 0.777897 0.165659 0.278793
H129  H     H_    0.762485 0.820790 0.136946 0.267983
H130  H     H_    0.958017 0.267839 0.886735 0.154146
H131  H     H_    0.021070 0.319106 0.911323 0.118075
H132  H     H_    0.025069 0.299522 0.834251 0.257325
H133  H     H_    0.088942 0.353473 0.858424 0.217239
H134  H     H_    0.125565 0.241846 0.890578 0.268414
H135  H     H_    0.735369 0.358295 0.286747 0.158369
H136  H     H_    0.139621 0.231128 0.846066 0.271509
H137  H     H_    0.062341 0.187957 0.865898 0.265587
H138  H     H_    0.173992 0.574668 0.108432 0.112110
H139  H     H_    0.140367 0.545407 0.149050 0.128125
H140  H     H_    0.186313 0.700990 0.128689 0.211827
H141  H     H_    0.145615 0.677024 0.168306 0.246590
H142  H     H_    0.249198 0.592658 0.180726 0.259854
H143  H     H_    0.281041 0.684036 0.172540 0.277108
H144  H     H_    0.290248 0.614793 0.140588 0.261138
H145  H     H_    0.604081 0.156452 0.896071 0.112600
H146  H     H_    0.364943 0.271070 0.718596 0.169436
H147  H     H_    0.568756 0.135910 0.854575 0.132415
H148  H     H_    0.730653 0.148107 0.874989 0.209158
H149  H     H_    0.698171 0.122741 0.833954 0.245824
H150  H     H_    0.635217 0.242797 0.828074 0.262611
H151  H     H_    0.731023 0.254922 0.836919 0.278709
H152  H     H_    0.664872 0.268506 0.869854 0.261166
H153  H     H_    0.275811 0.065725 0.109635 0.153213
H154  H     H_    0.357841 0.107089 0.094511 0.111895
H155  H     H_    0.312631 0.089118 0.168623 0.256747
H156  H     H_    0.396623 0.130559 0.154289 0.209272
H157  H     H_    0.635124 0.728844 0.281483 0.155200
H158  H     H_    0.323853 0.225026 0.123069 0.264671
H159  H     H_    0.304957 0.225212 0.167463 0.278899
H160  H     H_    0.240456 0.184372 0.138859 0.268044
H161  H     H_    0.000756 0.696816 0.903376 0.099031
H162  H     H_    0.958832 0.658165 0.866638 0.109689
H163  H     H_    0.053203 0.716696 0.830373 0.246303
H164  H     H_    0.000772 0.781519 0.854209 0.155784
H165  H     H_    0.102208 0.791580 0.896205 0.240131
H166  H     H_    0.132532 0.813798 0.854327 0.233466
H167  H     H_    0.155455 0.726498 0.872335 0.291515
H168  H     H_    0.728786 0.634939 0.281288 0.169617
H169  H     H_    0.827282 0.426707 0.104961 0.107162
H170  H     H_    0.856963 0.459474 0.145476 0.078811
H171  H     H_    0.845951 0.333405 0.168818 0.237498
H172  H     H_    0.761024 0.369724 0.153510 0.162634
H173  H     H_    0.775813 0.298424 0.100065 0.233442
H174  H     H_    0.775424 0.240370 0.136644 0.242328
H175  H     H_    0.860495 0.260616 0.115910 0.284287
H176  H     H_    0.271045 0.364732 0.718394 0.154947
H177  H     H_    0.641707 0.264588 0.286768 0.162969
H178  H     H_    0.363230 0.730550 0.717068 0.157895
H179  H     H_    0.271457 0.365243 0.281098 0.169518
H180  H     H_    0.134838 0.228670 0.218703 0.162886
H181  H     H_    0.729339 0.635737 0.717989 0.155041
H182  H     H_    0.361530 0.732200 0.284392 0.162701
H183  H     H_    0.636383 0.269811 0.717343 0.157809
H184  H     H_    0.925878 0.770182 0.464720 0.264663
H185  H     H_    0.929669 0.718606 0.503478 0.255169
H186  H     H_    0.006729 0.773011 0.490550 0.252305
H187  H     H_    0.030731 0.642515 0.479681 0.222673
H188  H     H_    0.026237 0.692961 0.441016 0.229777
H189  H     H_    0.896985 0.655516 0.433143 0.226640
H190  H     H_    0.898089 0.602702 0.470402 0.186535
H191  H     H_    0.864445 0.770517 0.781965 0.152274
H192  H     H_    0.273043 0.432016 0.534812 0.265426
H193  H     H_    0.221730 0.436366 0.495988 0.253972
H194  H     H_    0.275689 0.513381 0.509332 0.252366
H195  H     H_    0.144657 0.536358 0.520113 0.219617
H196  H     H_    0.195223 0.531593 0.558803 0.234577
H197  H     H_    0.157595 0.401072 0.565998 0.223039
H198  H     H_    0.105579 0.403894 0.528730 0.185870
H199  H     H_    0.567308 0.726958 0.465370 0.265407
H200  H     H_    0.563023 0.778371 0.504153 0.253993
H201  H     H_    0.485899 0.724528 0.490824 0.252365
H202  H     H_    0.764350 0.141980 0.213000 0.164108
H203  H     H_    0.463165 0.855538 0.479938 0.219662
H204  H     H_    0.467850 0.804873 0.441288 0.234487
H205  H     H_    0.598448 0.842226 0.434080 0.223069
H206  H     H_    0.595777 0.894296 0.471320 0.185851
H207  H     H_    0.229692 0.074410 0.535254 0.264619
H208  H     H_    0.281257 0.070521 0.496502 0.255206
H209  H     H_    0.226766 0.993553 0.509460 0.252319
H210  H     H_    0.357281 0.969442 0.520349 0.222679
H211  H     H_    0.306847 0.974023 0.559008 0.229748
H212  H     H_    0.344436 0.103199 0.566839 0.226581
H213  H     H_    0.229926 0.863627 0.782597 0.153537
H214  H     H_    0.397215 0.102034 0.529576 0.186547
H215  H     H_    0.074276 0.229680 0.464695 0.264671
H216  H     H_    0.070447 0.281189 0.503461 0.255171
H217  H     H_    0.993413 0.226780 0.490499 0.252302
H218  H     H_    0.969370 0.357286 0.479645 0.222645
H219  H     H_    0.973904 0.306908 0.440972 0.229796
H220  H     H_    0.103152 0.344416 0.433151 0.226606
H221  H     H_    0.101998 0.397165 0.470419 0.186547
H222  H     H_    0.726950 0.567634 0.534669 0.265443
H223  H     H_    0.778324 0.563317 0.495873 0.253965
H224  H     H_    0.864854 0.771101 0.218451 0.162647
H225  H     H_    0.724387 0.486270 0.509201 0.252350
H226  H     H_    0.855414 0.463366 0.520053 0.219646
H227  H     H_    0.804789 0.468094 0.558716 0.234530
H228  H     H_    0.842325 0.598624 0.565919 0.223118
H229  H     H_    0.894395 0.595863 0.528677 0.185867
H230  H     H_    0.432467 0.273065 0.465233 0.265393
H231  H     H_    0.436788 0.221715 0.504042 0.254009
H232  H     H_    0.513885 0.275568 0.490696 0.252354
H233  H     H_    0.536668 0.144550 0.479878 0.219647
H234  H     H_    0.531944 0.195154 0.441202 0.234439
H235  H     H_    0.134958 0.228900 0.781422 0.158465
H236  H     H_    0.401348 0.157731 0.434004 0.223018
H237  H     H_    0.404079 0.105715 0.471270 0.185866
H238  H     H_    0.770229 0.925773 0.535262 0.264619
H239  H     H_    0.718619 0.929645 0.496510 0.255203
H240  H     H_    0.773103 0.006629 0.509452 0.252312
H241  H     H_    0.642593 0.030702 0.520340 0.222692
H242  H     H_    0.693072 0.026140 0.558998 0.229730
H243  H     H_    0.655532 0.896957 0.566859 0.226622
H244  H     H_    0.602713 0.898094 0.529597 0.186546
H245  H     H_    0.215759 0.992296 0.952442 0.268701
H246  H     H_    0.228901 0.135184 0.781581 0.161602
H247  H     H_    0.251380 0.990348 0.994779 0.265788
H248  H     H_    0.222139 0.075331 0.976551 0.250973
H249  H     H_    0.357520 0.067553 0.976382 0.213421
H250  H     H_    0.320954 0.069665 0.934465 0.238316
H251  H     H_    0.328656 0.929810 0.933915 0.227444
H252  H     H_    0.376223 0.931823 0.972203 0.180393
H253  H     H_    0.770434 0.107115 0.048370 0.266320
H254  H     H_    0.713534 0.144082 0.015196 0.260612
H255  H     H_    0.736607 0.199399 0.051051 0.253255
H256  H     H_    0.608741 0.153048 0.054675 0.212478
O1    O     O_3   0.500000 0.000000 0.250000 -0.483038
O2    O     O_R   0.500000 0.939240 0.675070 -0.644996
O3    O     O_R   0.939240 0.500000 0.324930 -0.644984
O4    O     O_R   0.060760 0.500000 0.675070 -0.605066
O5    O     O_R   1.000000 0.439240 0.824930 -0.623520
O6    O     O_R   1.000000 0.560760 0.175070 -0.607882
O7    O     O_R   0.560760 0.000000 0.824930 -0.603745
O8    O     O_R   0.439240 0.000000 0.175070 -0.608814
O9    O     O_R   0.000000 0.560760 0.824930 -0.628649
O10   O     O_R   1.000000 0.439240 0.175070 -0.607056
O11   O     O_R   0.439240 0.000000 0.824930 -0.603602
O12   O     O_3   0.500000 0.000000 0.750000 -0.481144
O13   O     O_R   0.560760 0.000000 0.175070 -0.609559
O14   O     O_R   0.414510 0.146130 0.269710 -0.650891
O15   O     O_R   0.585490 0.853870 0.730290 -0.654555
O16   O     O_R   0.853870 0.414510 0.269710 -0.651406
O17   O     O_R   0.146130 0.585490 0.730290 -0.647210
O18   O     O_R   0.585490 0.853870 0.269710 -0.651171
O19   O     O_R   0.414510 0.146130 0.730290 -0.654733
O20   O     O_R   0.146130 0.585490 0.269710 -0.653249
O21   O     O_R   0.853870 0.414510 0.730290 -0.648194
O22   O     O_R   0.414510 0.853870 0.730290 -0.652668
O23   O     O_3   0.000000 0.500000 0.250000 -0.481132
O24   O     O_R   0.585490 0.146130 0.269710 -0.648399
O25   O     O_R   0.853870 0.585490 0.730290 -0.651379
O26   O     O_R   0.146130 0.414510 0.269710 -0.654734
O27   O     O_R   0.585490 0.146130 0.730290 -0.652562
O28   O     O_R   0.414510 0.853870 0.269710 -0.648268
O29   O     O_R   0.146130 0.414510 0.730290 -0.651532
O30   O     O_R   0.853870 0.585490 0.269710 -0.654670
O31   O     O_R   0.914510 0.646130 0.769710 -0.661085
O32   O     O_R   0.085490 0.353870 0.230290 -0.645002
O33   O     O_R   0.353870 0.914510 0.769710 -0.654145
O34   O     O_3   1.000000 0.500000 0.750000 -0.480822
O35   O     O_R   0.646130 0.085490 0.230290 -0.645907
O36   O     O_R   0.085490 0.353870 0.769710 -0.664774
O37   O     O_R   0.914510 0.646130 0.230290 -0.646140
O38   O     O_R   0.646130 0.085490 0.769710 -0.654054
O39   O     O_R   0.353870 0.914510 0.230290 -0.645370
O40   O     O_R   0.914510 0.353870 0.230290 -0.653162
O41   O     O_R   0.085490 0.646130 0.769710 -0.658385
O42   O     O_R   0.353870 0.085490 0.230290 -0.668100
O43   O     O_R   0.646130 0.914510 0.769710 -0.645576
O44   O     O_R   0.085490 0.646130 0.230290 -0.652254
O45   O     O_R   0.500000 0.939240 0.324930 -0.604513
O46   O     O_R   0.914510 0.353870 0.769710 -0.648832
O47   O     O_R   0.646130 0.914510 0.230290 -0.667103
O48   O     O_R   0.353870 0.085490 0.769710 -0.644999
O49   O     O_3   0.919601 0.604343 0.377801 -0.642603
O50   O     O_3   0.116430 0.436623 0.621204 -0.615789
O51   O     O_3   0.563098 0.883472 0.378853 -0.615829
O52   O     O_3   0.395630 0.080487 0.622192 -0.642714
O53   O     O_3   0.080438 0.395603 0.377801 -0.642571
O54   O     O_3   0.883574 0.563293 0.621145 -0.615815
O55   O     O_3   0.436821 0.116515 0.378798 -0.615886
O56   O     O_R   0.500000 0.060760 0.675070 -0.645082
O57   O     O_3   0.604310 0.919537 0.622197 -0.642659
O58   O     O_3   0.377363 0.950568 0.878788 -0.612617
O59   O     O_3   0.632641 0.998071 0.120646 -0.613442
O60   O     O_3   0.949274 0.378224 0.878935 -0.618953
O61   O     O_3   0.070249 0.612803 0.121818 -0.614660
O62   O     O_3   0.622752 0.050349 0.878451 -0.613390
O63   O     O_3   0.367217 0.005373 0.120667 -0.610663
O64   O     O_3   0.062438 0.617021 0.878348 -0.600792
O65   O     O_3   0.929357 0.388840 0.121409 -0.589377
O66   O     O_R   0.060760 0.500000 0.324930 -0.645119
O67   O     O_R   0.939240 0.500000 0.675070 -0.605078
O68   O     O_R   0.500000 0.060760 0.324930 -0.604646
Zn1   Zn    Zn3+2 0.413200 0.000000 0.222070 0.955703
Zn2   Zn    Zn3+2 0.086800 0.500000 0.277930 0.962345
Zn3   Zn    Zn3+2 0.500000 0.913200 0.722070 0.962465
Zn4   Zn    Zn3+2 0.500000 0.086800 0.277930 0.967144
Zn5   Zn    Zn3+2 0.086800 0.500000 0.722070 0.970260
Zn6   Zn    Zn3+2 0.913200 0.500000 0.277930 0.961710
Zn7   Zn    Zn3+2 0.500000 0.086800 0.722070 0.962455
Zn8   Zn    Zn3+2 0.500000 0.913200 0.277930 0.967432
Zn9   Zn    Zn3+2 0.586800 0.000000 0.777930 0.971082
Zn10  Zn    Zn3+2 0.000000 0.413200 0.222070 0.973380
Zn11  Zn    Zn3+2 0.000000 0.586800 0.777930 0.950705
Zn12  Zn    Zn3+2 0.586800 0.000000 0.222070 0.955068
Zn13  Zn    Zn3+2 0.413200 0.000000 0.777930 0.971590
Zn14  Zn    Zn3+2 0.000000 0.586800 0.222070 0.971725
Zn15  Zn    Zn3+2 0.000000 0.413200 0.777930 0.955191
Zn16  Zn    Zn3+2 0.913200 0.500000 0.722070 0.970335

loop_
_geom_bond_atom_site_label_1
_geom_bond_atom_site_label_2
_ccdc_geom_bond_type
C101  C148  A    
C126  C127  S    
C84   H50   S    
C108  H100  S    
C186  O46   A    
C121  H131  S    
C171  O2    A    
C86   H44   S    
C55   C56   S    
C144  O59   S    
O13   Zn12  S    
C25   C193  S    
C90   O50   S    
O18   Zn8   S    
C53   H223  S    
C80   H30   S    
C133  H160  S    
C73   H15   S    
C64   H5    S    
C54   H236  S    
C6    C25   A    
C37   H184  S    
C174  O9    A    
C44   H214  S    
O35   Zn12  S    
C108  C109  S    
C36   H188  S    
C27   C90   A    
C41   H205  S    
C110  C111  S    
C187  O33   A    
C143  O58   S    
C29   C113  A    
O8    Zn1   S    
C220  H146  S    
C119  H126  S    
C6    C215  A    
C131  H153  S    
C2    C64   S    
C66   H255  S    
C77   H36   S    
C200  H202  S    
C206  H2    S    
C178  O42   A    
C3    C19   A    
C58   H244  S    
C22   C190  S    
C75   H25   S    
C212  H68   S    
C106  H96   S    
C11   C216  A    
C26   C172  S    
C59   C60   S    
C200  C208  A    
C146  O61   S    
C30   C176  S    
C104  C105  S    
C14   C182  S    
C158  C167  S    
C120  H127  S    
C45   C47   S    
C68   C160  A    
C51   C52   S    
C114  H111  S    
C132  H156  S    
C42   H203  S    
C110  H107  S    
C32   C145  A    
C9    C213  A    
C145  O60   S    
C89   H56   S    
C47   H207  S    
C30   C143  A    
C199  C209  A    
C216  H101  S    
C118  H122  S    
C75   C76   S    
C197  C211  A    
C46   C77   S    
C152  C170  A    
C74   H28   S    
O46   Zn15  S    
C61   H252  S    
C177  O8    A    
C20   C224  A    
C193  O39   A    
C195  O37   A    
O41   Zn11  S    
C51   H228  S    
O23   Zn10  S    
C108  H102  S    
C104  H92   S    
O37   Zn14  S    
C91   H61   S    
C176  O11   A    
C11   C179  S    
C91   C92   S    
C193  O28   A    
C130  H152  S    
C8    C185  S    
C179  O15   A    
C120  H129  S    
C26   C79   A    
C72   C73   S    
C51   C181  S    
C93   H64   S    
C134  O64   S    
C139  C140  S    
C16   C184  S    
C121  O60   S    
O1    Zn4   S    
C218  H124  S    
C96   H72   S    
C122  H132  S    
C107  H99   S    
C79   O49   S    
C68   C151  A    
O11   Zn13  S    
C224  H177  S    
C102  H85   S    
C2    C157  A    
C103  H87   S    
C78   H33   S    
C99   H81   S    
C82   H41   S    
C96   H73   S    
C160  C168  S    
C69   C70   S    
C98   H78   S    
C88   H55   S    
C15   C206  A    
O34   Zn15  S    
C196  C212  A    
C37   H185  S    
C32   C150  A    
C88   C89   S    
C98   C99   S    
C175  O6    A    
C122  H133  S    
C14   C218  A    
C67   C69   S    
C123  H137  S    
C176  O7    A    
O45   Zn8   S    
C219  H135  S    
C136  H164  S    
C222  H168  S    
C138  H169  S    
C38   H197  S    
C95   C96   S    
C2    C144  A    
C83   H39   S    
C49   H219  S    
C13   C145  A    
C128  C129  S    
C109  H105  S    
C97   C98   S    
C127  H144  S    
C85   C86   S    
C89   H58   S    
O1    Zn8   S    
C42   H204  S    
C93   H66   S    
C7    H183  S    
C34   H190  S    
C85   H48   S    
C36   C37   S    
O12   Zn3   S    
C71   H20   S    
C66   H253  S    
C38   C39   S    
C78   C80   S    
C209  H35   S    
C39   H195  S    
C115  C116  S    
C102  H86   S    
C19   C201  A    
C126  H140  S    
C65   H3    S    
C1    C152  A    
C116  H118  S    
C38   H198  S    
C69   H9    S    
C70   H7    S    
C20   C200  A    
C109  H104  S    
C219  C224  A    
C126  H141  S    
C40   H192  S    
C173  O4    A    
C124  O53   S    
C211  H57   S    
C75   H26   S    
O29   Zn5   S    
O32   Zn10  S    
C152  C161  S    
C130  H150  S    
C40   H193  S    
C131  O63   S    
C17   C194  S    
C141  C192  A    
O47   Zn12  S    
C21   C199  A    
C92   H63   S    
C155  C203  A    
C1    C34   S    
C188  O24   A    
O25   Zn16  S    
C194  O36   A    
C43   H201  S    
C97   O52   S    
C67   H12   S    
C45   H211  S    
O36   Zn15  S    
C155  C159  A    
C6    H182  S    
C95   H70   S    
C72   H18   S    
O68   Zn4   S    
C3    H178  S    
C9    C186  S    
C33   C151  A    
O12   Zn7   S    
C39   C40   S    
O3    Zn6   S    
C217  H113  S    
C63   H247  S    
C50   H217  S    
C29   C171  S    
C111  H108  S    
C208  H24   S    
C169  O45   A    
C221  C222  A    
C17   C223  A    
C20   C188  S    
C4    C22   A    
C21   C189  S    
C210  H46   S    
O10   Zn10  S    
C97   H76   S    
C52   H226  S    
C43   H200  S    
C113  C159  A    
C25   C196  A    
C62   H250  S    
C12   C180  S    
C142  O57   S    
C82   H40   S    
C83   H37   S    
C182  O41   A    
C135  C181  A    
C38   C112  S    
C190  O26   A    
C52   C53   S    
C16   C205  A    
C127  H142  S    
C129  C130  S    
O56   Zn7   S    
C154  C192  A    
C54   C55   S    
C51   H229  S    
O66   Zn2   S    
C147  O62   S    
C94   H67   S    
C121  H130  S    
C86   H45   S    
C136  C137  S    
C117  H120  S    
C174  O5    A    
C183  O18   A    
C53   H222  S    
C103  H89   S    
C59   H242  S    
C112  C153  A    
C56   H231  S    
C27   C135  A    
C133  H159  S    
C73   H14   S    
C129  H149  S    
C149  O63   S    
C41   C148  S    
C150  O64   S    
C115  H116  S    
C3    C218  A    
O1    Zn1   S    
C85   H49   S    
C16   C220  A    
C34   C36   S    
C61   C62   S    
C198  C210  A    
O40   Zn10  S    
C33   C146  A    
C191  O38   A    
C119  H125  S    
C46   C149  A    
C204  C205  A    
C49   C50   S    
C61   C214  S    
C104  O54   S    
C81   H43   S    
C28   C141  A    
C8    C212  A    
C55   H234  S    
C88   H54   S    
C105  H94   S    
C220  C223  A    
C99   H80   S    
C10   C217  A    
C151  O65   S    
C57   C158  A    
C35   C74   S    
O26   Zn2   S    
O38   Zn9   S    
C41   C42   S    
C76   H21   S    
O28   Zn8   S    
C175  O10   A    
O12   Zn9   S    
C161  C162  T    
C223  H176  S    
C120  H128  S    
C77   C78   S    
C63   H245  S    
C148  C154  A    
C134  H161  S    
C205  H246  S    
C31   C149  A    
C47   H208  S    
O15   Zn3   S    
O34   Zn5   S    
O22   Zn3   S    
O24   Zn4   S    
C118  H123  S    
C19   C187  S    
C196  H1    S    
C100  H83   S    
O14   Zn4   S    
C28   C101  A    
C91   O50   S    
C50   H216  S    
C61   H251  S    
C15   C183  S    
C139  H172  S    
C60   H239  S    
C90   C112  A    
C215  H90   S    
O21   Zn16  S    
C54   H237  S    
C47   H209  S    
O1    Zn12  S    
C14   C207  A    
C137  H166  S    
C114  H114  S    
C172  O66   A    
C202  H224  S    
C188  O35   A    
C213  H79   S    
C184  O19   A    
O12   Zn13  S    
C74   H27   S    
C198  H180  S    
C80   H29   S    
C68   C84   S    
C30   C147  A    
O48   Zn13  S    
C73   H16   S    
C92   H62   S    
C167  C168  T    
C138  O65   S    
C87   O49   S    
C58   C59   S    
C32   C174  S    
C186  O21   A    
O27   Zn7   S    
C185  O44   A    
C5    C21   A    
C95   H71   S    
C41   H206  S    
C117  H121  S    
C62   C63   S    
O5    Zn15  S    
C100  O53   S    
C131  H154  S    
C66   H254  S    
C201  C207  A    
C18   C202  A    
C96   H74   S    
C58   H243  S    
C84   C85   S    
C121  C122  S    
C54   C192  S    
C106  H95   S    
C48   C170  S    
C48   C49   S    
C153  C181  A    
C58   C203  S    
C48   H220  S    
C187  O22   A    
C125  C126  S    
C155  C164  S    
C172  O3    A    
C76   H23   S    
C42   C43   S    
C131  C132  S    
O7    Zn9   S    
C5    H181  S    
C44   C45   S    
C94   H69   S    
C138  H170  S    
C18   C195  S    
C22   C198  A    
C49   H218  S    
C114  H110  S    
C132  H155  S    
C137  H165  S    
C86   H47   S    
C191  O27   A    
C119  C120  S    
C127  H143  S    
C125  H139  S    
O23   Zn14  S    
O34   Zn11  S    
C105  C106  S    
O2    Zn3   S    
C93   H65   S    
C153  C162  S    
C46   C157  A    
C78   H32   S    
C64   C65   S    
C173  O67   A    
C71   H19   S    
C24   C146  A    
C156  C165  S    
C113  O52   S    
C92   C93   S    
C111  C114  S    
C56   H230  S    
C115  O58   S    
C94   C95   S    
C18   C222  A    
C70   H8    S    
C109  H103  S    
C183  O47   A    
C138  C139  S    
C207  H13   S    
C184  O48   A    
C28   C169  S    
C71   C72   S    
C36   H187  S    
C87   C88   S    
C82   C83   S    
O9    Zn11  S    
C84   H51   S    
O67   Zn16  S    
C104  H91   S    
C169  O68   A    
C123  H136  S    
C130  H151  S    
C40   H194  S    
C165  C166  T    
C80   H31   S    
C111  H109  S    
C163  C164  T    
C97   H75   S    
C178  O14   A    
C110  H106  S    
C8    C215  A    
C27   C173  S    
C23   C191  S    
C81   C82   S    
C189  O31   A    
C128  H145  S    
O23   Zn2   S    
C67   H11   S    
C48   H221  S    
C45   H210  S    
C31   C177  S    
O42   Zn1   S    
O30   Zn6   S    
C12   C208  A    
O6    Zn14  S    
C7    C23   A    
C103  H88   S    
C182  O17   A    
C199  H191  S    
C116  C117  S    
C99   H82   S    
C177  O13   A    
C87   H53   S    
C31   C144  A    
C98   H77   S    
C118  C119  S    
C197  H112  S    
C4    H179  S    
C37   H186  S    
O16   Zn6   S    
C50   H215  S    
C132  C133  S    
C140  H175  S    
C43   H199  S    
C201  H213  S    
C12   C219  A    
C194  O29   A    
C171  O56   A    
C136  H163  S    
C128  O62   S    
C118  O59   S    
C26   C124  A    
C60   H238  S    
C102  C103  S    
C33   C175  S    
C137  H167  S    
C10   C210  A    
C125  O61   S    
C89   H59   S    
C74   C75   S    
O23   Zn6   S    
C10   C178  S    
C34   H189  S    
C154  C163  S    
C35   C156  A    
C195  O30   A    
C117  H119  S    
C101  O51   S    
C134  C136  S    
C39   H196  S    
C5    C216  A    
C65   H256  S    
C59   H241  S    
C116  H117  S    
C56   H232  S    
C179  O43   A    
C133  H158  S    
C15   C221  A    
C17   C204  A    
C69   H10   S    
C70   H6    S    
C129  H148  S    
C135  O54   S    
C53   H225  S    
C115  H115  S    
C107  C108  S    
C107  O55   S    
C57   C150  A    
C44   H212  S    
C100  C102  S    
O39   Zn1   S    
C91   H60   S    
C110  O57   S    
C35   C147  A    
C140  H173  S    
C7    C213  A    
C123  H134  S    
O34   Zn16  S    
C125  H138  S    
C143  C214  A    
C140  H174  S    
C4    C217  A    
C77   H34   S    
C156  C214  A    
C81   H42   S    
C180  O40   A    
C57   C81   S    
C87   H52   S    
C180  O16   A    
C55   H233  S    
C105  H93   S    
C13   C158  A    
C64   H4    S    
C189  O25   A    
C13   C67   S    
C128  H147  S    
O17   Zn5   S    
O4    Zn5   S    
C72   H17   S    
C107  H98   S    
C76   H22   S    
C157  C166  S    
C221  H157  S    
O44   Zn14  S    
C24   C160  A    
C63   H248  S    
C106  H97   S    
C23   C197  A    
C134  H162  S    
C142  C203  A    
C204  H235  S    
C11   C209  A    
C190  O32   A    
O20   Zn2   S    
C52   H227  S    
C9    C211  A    
C1    C79   A    
C29   C142  A    
C185  O20   A    
O31   Zn11  S    
C44   C159  S    
O43   Zn9   S    
C100  H84   S    
C62   H249  S    
C124  C170  A    
C141  O55   S    
O19   Zn7   S    
C65   C66   S    
C202  C206  A    
C94   O51   S    
C139  H171  S    
C60   H240  S    
C83   H38   S    
C122  C123  S    
O33   Zn13  S    
C24   C71   S    
