data_mof_unit_2121.cif
_audit_creation_date              2013-03-05T16:29:46-0500
_audit_creation_method            fapswitch 2.2
_symmetry_space_group_name_H-M    P1
_symmetry_Int_Tables_number       1
_space_group_crystal_system       triclinic
_cell_length_a                    26.087713
_cell_length_b                    26.20798
_cell_length_c                    18.404201
_cell_angle_alpha                 90.438212
_cell_angle_beta                  134.375224
_cell_angle_gamma                 90.013432
_cell_volume                      8993.52663643

loop_
_atom_site_label
_atom_site_type_symbol
_atom_site_description
_atom_site_fract_x
_atom_site_fract_y
_atom_site_fract_z
_atom_type_partial_charge
Zn1   Zn    Zn3+2 0.663280 0.793400 0.413250 1.114448
Zn2   Zn    Zn3+2 0.663280 0.206600 0.413250 1.125291
Zn3   Zn    Zn3+2 0.163280 0.293400 0.413250 1.136212
Zn4   Zn    Zn3+2 0.163280 0.706600 0.413250 1.134363
Zn5   Zn    Zn3+2 0.836780 0.793410 0.586750 1.108078
Zn6   Zn    Zn3+2 0.836780 0.206590 0.586750 1.126541
Zn7   Zn    Zn3+2 0.336780 0.293410 0.586750 1.117791
Zn8   Zn    Zn3+2 0.336780 0.706590 0.586750 1.121146
Zn9   Zn    Zn3+2 0.750030 0.706650 0.586760 1.135835
Zn10  Zn    Zn3+2 0.750030 0.293350 0.586760 1.148535
Zn11  Zn    Zn3+2 0.250030 0.206650 0.586760 1.132879
Zn12  Zn    Zn3+2 0.250030 0.793350 0.586760 1.149529
Zn13  Zn    Zn3+2 0.750010 0.706640 0.413230 1.155062
Zn14  Zn    Zn3+2 0.750010 0.293360 0.413230 1.157976
Zn15  Zn    Zn3+2 0.250010 0.206640 0.413230 1.158866
Zn16  Zn    Zn3+2 0.250010 0.793360 0.413230 1.162451
O1    O     O_3   0.750030 0.750030 0.500000 -0.590524
O2    O     O_3   0.750030 0.249970 0.500000 -0.593885
O3    O     O_3   0.250030 0.250030 0.500000 -0.593449
O4    O     O_3   0.250030 0.749970 0.500000 -0.593208
O5    O     O_R   0.835440 0.719660 0.439260 -0.581059
O6    O     O_R   0.835440 0.280340 0.439260 -0.595267
O7    O     O_R   0.335440 0.219660 0.439260 -0.589382
O8    O     O_R   0.335440 0.780340 0.439260 -0.593485
O9    O     O_R   0.603880 0.780390 0.439300 -0.606223
O10   O     O_R   0.603880 0.219610 0.439300 -0.612833
O11   O     O_R   0.103880 0.280390 0.439300 -0.595294
O12   O     O_R   0.103880 0.719610 0.439300 -0.594455
O13   O     O_R   0.810750 0.865830 0.560720 -0.596727
O14   O     O_R   0.810750 0.134170 0.560720 -0.581364
O15   O     O_R   0.310750 0.365830 0.560720 -0.594452
O16   O     O_R   0.310750 0.634170 0.560720 -0.597071
O17   O     O_R   0.750030 0.634230 0.560720 -0.602374
O18   O     O_R   0.750030 0.365770 0.560720 -0.584361
O19   O     O_R   0.250030 0.134230 0.560720 -0.605700
O20   O     O_R   0.250030 0.865770 0.560720 -0.584645
O21   O     O_R   0.896190 0.780400 0.731600 -0.627515
O22   O     O_R   0.896190 0.219600 0.731600 -0.619670
O23   O     O_R   0.396190 0.280400 0.731600 -0.641652
O24   O     O_R   0.396190 0.719600 0.731600 -0.631432
O25   O     O_R   0.664570 0.719650 0.268390 -0.555188
O26   O     O_R   0.664570 0.280350 0.268390 -0.557611
O27   O     O_R   0.164570 0.219650 0.268390 -0.556417
O28   O     O_R   0.164570 0.780350 0.268390 -0.556934
O29   O     O_R   0.835480 0.719680 0.731610 -0.555380
O30   O     O_R   0.835480 0.280320 0.731610 -0.562621
O31   O     O_R   0.335480 0.219680 0.731610 -0.552293
O32   O     O_R   0.335480 0.780320 0.731610 -0.563905
O33   O     O_R   0.603860 0.780380 0.268400 -0.599014
O34   O     O_R   0.603860 0.219620 0.268400 -0.600007
O35   O     O_R   0.103860 0.280380 0.268400 -0.597603
O36   O     O_R   0.103860 0.719620 0.268400 -0.610147
O37   O     O_R   0.689310 0.865830 0.439290 -0.593855
O38   O     O_R   0.689310 0.134170 0.439290 -0.604240
O39   O     O_R   0.189310 0.365830 0.439290 -0.579629
O40   O     O_R   0.189310 0.634170 0.439290 -0.595564
O41   O     O_R   0.750020 0.634220 0.439270 -0.562438
O42   O     O_R   0.750020 0.365780 0.439270 -0.576781
O43   O     O_R   0.250020 0.134220 0.439270 -0.562348
O44   O     O_R   0.250020 0.865780 0.439270 -0.575053
O45   O     O_R   0.896170 0.780390 0.560700 -0.589979
O46   O     O_R   0.896170 0.219610 0.560700 -0.570597
O47   O     O_R   0.396170 0.280390 0.560700 -0.577429
O48   O     O_R   0.396170 0.719610 0.560700 -0.577699
O49   O     O_R   0.664610 0.719670 0.560740 -0.582034
O50   O     O_R   0.664610 0.280330 0.560740 -0.590392
O51   O     O_R   0.164610 0.219670 0.560740 -0.587013
O52   O     O_R   0.164610 0.780330 0.560740 -0.597768
C1    C     C_R   0.890531 0.749174 0.501300 0.902753
C2    C     C_R   0.889927 0.250437 0.500003 0.916192
C3    C     C_R   0.390282 0.249700 0.500387 0.925495
C4    C     C_R   0.390000 0.750515 0.500211 0.927759
C5    C     C_R   0.611263 0.750193 0.501933 0.833711
C6    C     C_R   0.611364 0.249182 0.502358 0.866725
C7    C     C_R   0.111464 0.250373 0.502242 0.844051
C8    C     C_R   0.110976 0.749572 0.501393 0.879308
C9    C     C_R   0.749943 0.889749 0.499527 0.884070
C10   C     C_R   0.749884 0.110221 0.497237 0.884884
C11   C     C_R   0.250172 0.389705 0.500588 0.910480
C12   C     C_R   0.249756 0.610243 0.500245 0.911237
C13   C     C_R   0.752048 0.610125 0.502003 0.911726
C14   C     C_R   0.750661 0.389994 0.501574 0.909297
C15   C     C_R   0.251600 0.110163 0.501581 0.919638
C16   C     C_R   0.251283 0.890005 0.502174 0.912111
C17   C     C_R   0.888647 0.750535 0.779569 0.895454
C18   C     C_R   0.891710 0.252940 0.779392 0.873462
C19   C     C_R   0.389050 0.250386 0.779723 0.888978
C20   C     C_R   0.391500 0.752815 0.779059 0.876379
C21   C     C_R   0.610694 0.750394 0.219629 0.909632
C22   C     C_R   0.608946 0.250836 0.219925 0.934859
C23   C     C_R   0.110814 0.250801 0.219404 0.923873
C24   C     C_R   0.108985 0.750720 0.219740 0.928296
C25   C     C_R   0.548110 0.716319 0.045026 -0.008859
C26   C     C_R   0.562803 0.269536 0.050035 -0.007202
C27   C     C_R   0.057849 0.222970 0.045886 -0.007827
C28   C     C_R   0.061456 0.771675 0.049121 -0.006274
C29   C     C_R   0.558984 0.754958 0.107501 -0.160952
C30   C     C_R   0.550281 0.251750 0.107708 -0.187196
C31   C     C_R   0.060063 0.256957 0.107174 -0.172847
C32   C     C_R   0.050227 0.751485 0.107195 -0.191801
C33   C     C_R   0.518077 0.800313 0.056524 0.189573
C34   C     C_R   0.481332 0.231521 0.054394 0.217428
C35   C     C_R   0.014636 0.300587 0.056193 0.188687
C36   C     C_R   0.982065 0.729485 0.054073 0.213342
C37   C     C_R   0.465229 0.802716 0.947556 0.250574
C38   C     C_R   0.426133 0.234844 0.947130 0.256460
C39   C     C_R   0.962200 0.303186 0.947341 0.258078
C40   C     C_R   0.926341 0.732671 0.946876 0.256555
C41   C     C_R   0.451064 0.758881 0.889468 -0.166971
C42   C     C_R   0.443016 0.249533 0.891315 -0.230268
C43   C     C_R   0.953032 0.261013 0.889822 -0.197369
C44   C     C_R   0.942232 0.749524 0.890916 -0.236395
C45   C     C_R   0.498309 0.719619 0.942302 -0.115481
C46   C     C_R   0.513300 0.263816 0.945042 -0.027143
C47   C     C_R   0.008136 0.226641 0.942328 -0.095434
C48   C     C_R   0.010932 0.766960 0.943773 -0.031944
C49   C     C_3   0.508150 0.668408 0.920457 0.019148
C50   C     C_3   0.537085 0.311726 0.931584 -0.009515
C51   C     C_3   0.013725 0.173566 0.922000 0.020639
C52   C     C_3   0.028477 0.817563 0.928909 -0.003016
C53   C     C_3   0.562878 0.661916 0.036294 0.383883
C54   C     C_3   0.583409 0.321831 0.043765 0.359992
C55   C     C_3   0.066778 0.166841 0.037393 0.372142
C56   C     C_3   0.078499 0.825511 0.042383 0.358586
H1    H     H_    0.459173 0.643973 0.875145 0.168569
H2    H     H_    0.493716 0.339973 0.879792 0.177819
H3    H     H_    0.962587 0.151675 0.876140 0.187804
H4    H     H_    0.982227 0.844175 0.881415 0.184746
C57   C     C_R   0.493831 0.775108 0.431134 -0.031526
C58   C     C_R   0.498153 0.216344 0.441627 -0.044430
C59   C     C_R   0.992022 0.271346 0.426978 -0.020758
C60   C     C_R   0.988977 0.731165 0.424500 -0.075319
C61   C     C_R   0.558972 0.752123 0.509077 -0.208388
C62   C     C_R   0.560720 0.244962 0.512197 -0.177012
C63   C     C_R   0.058992 0.252288 0.508926 -0.211092
C64   C     C_R   0.058457 0.747189 0.507420 -0.144786
C65   C     C_R   0.572778 0.734571 0.594092 0.203522
C66   C     C_R   0.573551 0.267782 0.593707 0.204441
C67   C     C_R   0.073829 0.237890 0.595986 0.198693
C68   C     C_R   0.075797 0.759790 0.597541 0.209884
C69   C     C_R   0.518658 0.737348 0.593876 0.203741
C70   C     C_R   0.518264 0.268389 0.591238 0.216532
C71   C     C_R   0.019319 0.239838 0.595049 0.201194
C72   C     C_R   0.021649 0.758301 0.598440 0.195763
C73   C     C_R   0.449043 0.754144 0.506310 -0.182071
C74   C     C_R   0.449908 0.246642 0.507672 -0.170935
C75   C     C_R   0.948767 0.254037 0.505559 -0.186328
C76   C     C_R   0.949364 0.746144 0.507587 -0.172049
C77   C     C_R   0.439529 0.776008 0.428216 -0.030782
C78   C     C_R   0.443720 0.218260 0.437541 -0.055594
C79   C     C_R   0.937673 0.272906 0.424147 -0.021783
C80   C     C_R   0.936778 0.731572 0.423656 -0.055361
C81   C     C_3   0.383719 0.769766 0.313677 0.444319
C82   C     C_3   0.387264 0.210254 0.324182 0.476073
C83   C     C_3   0.883034 0.260727 0.311213 0.443711
C84   C     C_3   0.879415 0.717963 0.312855 0.488971
C85   C     C_3   0.445352 0.768094 0.319662 -0.035924
C86   C     C_3   0.449146 0.206686 0.330248 0.007125
C87   C     C_3   0.944899 0.257262 0.318181 -0.047450
C88   C     C_3   0.939820 0.716814 0.314900 0.014077
H5    H     H_    0.452669 0.730723 0.298870 0.121298
H6    H     H_    0.451652 0.237551 0.291775 0.197941
H7    H     H_    0.955584 0.218277 0.307160 0.117485
H8    H     H_    0.937037 0.746805 0.270015 0.200745
C89   C     C_R   0.739222 0.525427 0.429113 -0.063846
C90   C     C_R   0.737742 0.473085 0.429236 -0.088928
C91   C     C_R   0.234697 0.025543 0.426107 -0.069386
C92   C     C_R   0.234233 0.973263 0.427182 -0.088547
C93   C     C_R   0.758092 0.554439 0.508770 -0.170556
C94   C     C_R   0.753864 0.445937 0.507507 -0.171838
C95   C     C_R   0.256844 0.054568 0.507673 -0.174383
C96   C     C_R   0.254770 0.945996 0.508267 -0.167359
C97   C     C_R   0.780684 0.528244 0.594115 0.210300
C98   C     C_R   0.776083 0.474318 0.592207 0.199899
C99   C     C_R   0.283657 0.028482 0.595544 0.207768
C100  C     C_R   0.280529 0.974466 0.594908 0.198180
C101  C     C_3   0.680713 0.467178 0.316058 0.463574
C102  C     C_3   0.677618 0.527494 0.315815 0.455204
C103  C     C_3   0.175194 0.966706 0.314638 0.464650
C104  C     C_3   0.170601 0.026905 0.313454 0.462385
C105  C     C_R   0.811703 0.973941 0.553830 -0.078488
C106  C     C_R   0.812295 0.025823 0.551963 -0.075807
C107  C     C_R   0.300453 0.474201 0.516957 -0.083400
C108  C     C_R   0.299432 0.525929 0.515213 -0.091339
C109  C     C_R   0.748456 0.945421 0.493863 -0.145693
C110  C     C_R   0.749041 0.054430 0.489277 -0.154667
C111  C     C_R   0.249823 0.445381 0.503953 -0.133107
C112  C     C_R   0.248995 0.554488 0.503081 -0.139402
C113  C     C_R   0.682769 0.972821 0.424077 0.194692
C114  C     C_R   0.683269 0.026615 0.419585 0.191742
C115  C     C_R   0.197175 0.472474 0.492228 0.215513
C116  C     C_R   0.197008 0.526967 0.492651 0.198724
C117  C     C_3   0.892885 0.029033 0.640066 0.404695
C118  C     C_3   0.891497 0.968995 0.642314 0.417263
C119  C     C_3   0.359819 0.530372 0.521589 0.392313
C120  C     C_3   0.360399 0.470287 0.522195 0.413299
N1    N     N_R   0.531649 0.844347 0.114626 0.262925
O53   O     O_R   0.593808 0.867189 0.173761 -0.310196
O54   O     O_R   0.481116 0.862855 0.105466 -0.176125
N2    N     N_R   0.465751 0.209998 0.108426 0.259683
O55   O     O_R   0.465465 0.238886 0.165940 -0.337272
O56   O     O_R   0.444780 0.162669 0.091883 -0.197597
N3    N     N_R   0.021962 0.342352 0.113759 0.261840
O57   O     O_R   0.080551 0.369669 0.172783 -0.311120
O58   O     O_R   0.968253 0.355532 0.101489 -0.185149
N4    N     N_R   0.967560 0.706650 0.108470 0.259749
O59   O     O_R   0.965307 0.734898 0.164580 -0.342533
O60   O     O_R   0.949650 0.658651 0.093859 -0.218407
S1    S     S_3+6 0.333685 0.710816 0.267389 0.099077
O61   O     O_2   0.280235 0.712050 0.275406 -0.235223
O62   O     O_2   0.294201 0.702922 0.157776 -0.194483
O63   O     O_3   0.389962 0.661880 0.336614 -0.499733
H9    H     H_    0.404798 0.650544 0.302162 0.377377
S2    S     S_3+6 0.331551 0.264968 0.254350 0.097247
O64   O     O_2   0.291254 0.258188 0.144224 -0.151569
O65   O     O_2   0.279085 0.271142 0.263660 -0.273358
O66   O     O_3   0.383486 0.317610 0.300980 -0.542597
H10   H     H_    0.349470 0.346433 0.266066 0.419257
S3    S     S_3+6 0.836283 0.200941 0.276402 0.091324
O67   O     O_2   0.780640 0.205537 0.279857 -0.240440
O68   O     O_2   0.799830 0.186053 0.170305 -0.187642
O69   O     O_3   0.894559 0.155219 0.357803 -0.546874
H11   H     H_    0.914578 0.142203 0.331312 0.370829
S4    S     S_3+6 0.816819 0.768759 0.237519 0.090273
O70   O     O_2   0.770418 0.756743 0.126742 -0.145998
O71   O     O_2   0.770602 0.775130 0.257971 -0.285446
O72   O     O_3   0.862125 0.823454 0.267666 -0.565454
H12   H     H_    0.824664 0.849740 0.225115 0.410594
N5    N     N_R   0.449256 0.811320 0.273534 0.283519
O73   O     O_R   0.444269 0.802961 0.199044 -0.255832
O74   O     O_R   0.461545 0.857560 0.309282 -0.222718
N6    N     N_R   0.458755 0.155631 0.308222 0.268157
O75   O     O_R   0.421234 0.141891 0.214583 -0.165763
O76   O     O_R   0.505342 0.124039 0.380919 -0.265011
N7    N     N_R   0.945437 0.296060 0.261719 0.281390
O77   O     O_R   0.938603 0.281849 0.187440 -0.269752
O78   O     O_R   0.956729 0.344082 0.288116 -0.212309
N8    N     N_R   0.953999 0.665739 0.299464 0.265485
O79   O     O_R   0.915038 0.648157 0.207569 -0.174184
O80   O     O_R   0.002691 0.636627 0.376028 -0.240526
N9    N     N_R   0.805270 0.556021 0.681337 0.257469
O81   O     O_R   0.768578 0.554849 0.705075 -0.198920
O82   O     O_R   0.864572 0.582431 0.737298 -0.315596
N10   N     N_R   0.791156 0.449865 0.674775 0.266421
O83   O     O_R   0.850144 0.461516 0.767439 -0.207446
O84   O     O_R   0.738416 0.429953 0.659203 -0.215344
N11   N     N_R   0.311773 0.056405 0.684625 0.257273
O85   O     O_R   0.280043 0.053873 0.716022 -0.205535
O86   O     O_R   0.369637 0.084012 0.735054 -0.320522
N12   N     N_R   0.301772 0.949950 0.681646 0.264227
O87   O     O_R   0.363467 0.961991 0.771344 -0.207527
O88   O     O_R   0.252534 0.930254 0.674390 -0.218408
S5    S     S_3+6 0.601689 0.432171 0.269570 0.122832
O89   O     O_2   0.611138 0.375637 0.270882 -0.273449
O90   O     O_2   0.587886 0.443086 0.334881 -0.257046
O91   O     O_3   0.529414 0.448381 0.149132 -0.395064
H13   H     H_    0.487708 0.437231 0.137167 0.415796
S6    S     S_3+6 0.600663 0.557525 0.283950 0.121442
O92   O     O_2   0.531971 0.543985 0.177849 -0.125410
O93   O     O_2   0.595618 0.541284 0.356949 -0.270365
O94   O     O_3   0.609058 0.621416 0.292247 -0.533738
H14   H     H_    0.575558 0.633747 0.296957 0.363726
S7    S     S_3+6 0.099016 0.930325 0.274709 0.116950
O95   O     O_2   0.108624 0.874136 0.272224 -0.276102
O96   O     O_2   0.091132 0.938751 0.347324 -0.273100
O97   O     O_3   0.023027 0.947558 0.157577 -0.394788
H15   H     H_    0.983816 0.934125 0.149618 0.413353
S8    S     S_3+6 0.094639 0.056076 0.284995 0.121926
O98   O     O_2   0.026258 0.045872 0.176481 -0.124415
O99   O     O_2   0.087773 0.036402 0.354325 -0.269170
O100  O     O_3   0.105749 0.119650 0.302252 -0.539074
H16   H     H_    0.068975 0.131257 0.300943 0.369260
S9    S     S_3+6 0.723499 0.436416 0.280328 0.169451
O101  O     O_2   0.713287 0.379815 0.272799 -0.178184
O102  O     O_2   0.693924 0.454118 0.179949 -0.149273
O103  O     O_3   0.812439 0.447976 0.370531 -0.498917
H17   H     H_    0.829394 0.441154 0.337236 0.427661
S10   S     S_3+6 0.703162 0.559995 0.259328 0.174012
O104  O     O_2   0.652896 0.543975 0.150005 -0.166409
O105  O     O_2   0.698060 0.616499 0.264164 -0.182153
O106  O     O_3   0.787952 0.546389 0.319674 -0.461559
H18   H     H_    0.789068 0.548869 0.267115 0.432308
S11   S     S_3+6 0.216653 0.937066 0.276078 0.169888
O107  O     O_2   0.207205 0.880393 0.268191 -0.176274
O108  O     O_2   0.185678 0.955689 0.175405 -0.156661
O109  O     O_3   0.305524 0.949213 0.364799 -0.493915
H19   H     H_    0.320494 0.948054 0.328030 0.429399
S12   S     S_3+6 0.190163 0.059688 0.250066 0.175317
O110  O     O_2   0.135271 0.043834 0.140275 -0.160088
O111  O     O_2   0.185441 0.116031 0.257176 -0.187294
O112  O     O_3   0.272899 0.046479 0.301533 -0.468107
H20   H     H_    0.270028 0.049931 0.245209 0.433387
N13   N     N_R   0.614652 0.947072 0.357996 0.262127
O113  O     O_R   0.589145 0.931006 0.394311 -0.254472
O114  O     O_R   0.572506 0.949091 0.260023 -0.190536
N14   N     N_R   0.616174 0.052152 0.343428 0.258945
O115  O     O_R   0.565996 0.048070 0.342433 -0.209110
O116  O     O_R   0.601989 0.073904 0.267746 -0.266510
N15   N     N_R   0.146928 0.445127 0.486654 0.241647
O117  O     O_R   0.169468 0.420164 0.565289 -0.350206
O118  O     O_R   0.081342 0.438391 0.399238 -0.206071
N16   N     N_R   0.146993 0.553693 0.488584 0.244788
O119  O     O_R   0.169707 0.587926 0.557425 -0.338440
O120  O     O_R   0.078865 0.542928 0.417940 -0.202242
N17   N     N_R   0.915736 0.052849 0.731603 0.221352
O121  O     O_R   0.982438 0.049807 0.817855 -0.210276
O122  O     O_R   0.869383 0.072495 0.730531 -0.361319
N18   N     N_R   0.911136 0.949217 0.733665 0.215809
O123  O     O_R   0.978403 0.943266 0.816761 -0.218384
O124  O     O_R   0.862510 0.937536 0.733456 -0.357594
N19   N     N_R   0.424315 0.553282 0.618466 0.229727
O125  O     O_R   0.479662 0.563694 0.632867 -0.187328
O126  O     O_R   0.430555 0.557015 0.694971 -0.285634
N20   N     N_R   0.426466 0.449239 0.618500 0.234728
O127  O     O_R   0.484210 0.447492 0.636160 -0.187798
O128  O     O_R   0.429538 0.434543 0.688892 -0.288967
S13   S     S_3+6 0.935912 0.058570 0.605217 0.165037
O129  O     O_2   0.919948 0.114477 0.587439 -0.217209
O130  O     O_2   0.015805 0.052606 0.690104 -0.127064
O131  O     O_3   0.906354 0.032184 0.497842 -0.473972
H21   H     H_    0.934645 0.049068 0.487243 0.410238
S14   S     S_3+6 0.932116 0.931529 0.610301 0.151189
O132  O     O_2   0.003432 0.953200 0.658676 -0.139371
O133  O     O_2   0.944654 0.878362 0.649480 -0.212919
O134  O     O_3   0.877177 0.928550 0.483376 -0.513023
H22   H     H_    0.897771 0.901840 0.471830 0.390256
S15   S     S_3+6 0.332509 0.564123 0.414101 0.141807
O135  O     O_2   0.336740 0.620462 0.433556 -0.266945
O136  O     O_2   0.381894 0.551940 0.400940 -0.148105
O137  O     O_3   0.247621 0.549077 0.307186 -0.486306
H23   H     H_    0.236811 0.570657 0.253961 0.410066
S16   S     S_3+6 0.332544 0.435134 0.414543 0.113058
O138  O     O_2   0.378327 0.449425 0.396000 -0.174482
O139  O     O_2   0.341447 0.379115 0.437292 -0.298176
O140  O     O_3   0.245816 0.446043 0.309710 -0.479558
H24   H     H_    0.234081 0.422543 0.257303 0.402163
S17   S     S_3+6 0.425829 0.861827 0.886240 0.173353
O141  O     O_2   0.354266 0.865249 0.852440 -0.101714
O142  O     O_2   0.471879 0.906238 0.955657 -0.147753
O143  O     O_3   0.414376 0.865301 0.784340 -0.548185
H25   H     H_    0.463243 0.862461 0.812116 0.356249
S18   S     S_3+6 0.335637 0.229637 0.886744 0.181611
O144  O     O_2   0.308605 0.176993 0.841418 -0.100216
O145  O     O_2   0.327984 0.238270 0.959618 -0.140337
O146  O     O_3   0.285905 0.273470 0.794515 -0.535903
H26   H     H_    0.306491 0.306824 0.830301 0.360521
S19   S     S_3+6 0.917628 0.361319 0.885723 0.174449
O147  O     O_2   0.844681 0.359734 0.848054 -0.100058
O148  O     O_2   0.958654 0.406524 0.955898 -0.154278
O149  O     O_3   0.908754 0.368483 0.786567 -0.542109
H27   H     H_    0.958440 0.369080 0.816796 0.355587
S20   S     S_3+6 0.835981 0.725228 0.886879 0.181849
O150  O     O_2   0.809564 0.673059 0.838661 -0.099637
O151  O     O_2   0.828477 0.730995 0.960397 -0.140580
O152  O     O_3   0.785021 0.769950 0.796914 -0.537952
H28   H     H_    0.805566 0.802963 0.834106 0.359527
N21   N     N_R   0.539636 0.670635 0.878873 0.279090
O153  O     O_R   0.585301 0.706432 0.906983 -0.217872
O154  O     O_R   0.529296 0.632706 0.823938 -0.176324
N22   N     N_R   0.579481 0.301748 0.908215 0.282895
O155  O     O_R   0.615596 0.259595 0.937323 -0.227016
O156  O     O_R   0.595487 0.339897 0.882195 -0.169779
N23   N     N_R   0.045031 0.171661 0.880137 0.290900
O157  O     O_R   0.098988 0.200930 0.915976 -0.204888
O158  O     O_R   0.013484 0.144551 0.798807 -0.201588
N24   N     N_R   0.065417 0.813465 0.895794 0.282146
O159  O     O_R   0.106174 0.774512 0.921874 -0.213037
O160  O     O_R   0.071159 0.854204 0.861975 -0.169918
N25   N     N_R   0.636259 0.653757 0.083318 0.264411
O161  O     O_R   0.649920 0.616750 0.051526 -0.186274
O162  O     O_R   0.684871 0.688767 0.142363 -0.246439
N26   N     N_R   0.659756 0.326987 0.104154 0.269116
O163  O     O_R   0.683768 0.364898 0.089506 -0.172394
O164  O     O_R   0.703302 0.291387 0.167435 -0.272103
N27   N     N_R   0.139202 0.153581 0.085395 0.266047
O165  O     O_R   0.149403 0.114211 0.053347 -0.198852
O166  O     O_R   0.191872 0.185436 0.148710 -0.244870
N28   N     N_R   0.153647 0.832479 0.096923 0.269213
O167  O     O_R   0.173686 0.871259 0.077822 -0.170824
O168  O     O_R   0.199475 0.796966 0.157010 -0.263934
N29   N     N_R   0.537235 0.623840 0.062756 0.228322
O169  O     O_R   0.506486 0.639085 0.092022 -0.328022
O170  O     O_R   0.522208 0.578148 0.023959 -0.233505
N30   N     N_R   0.554733 0.364342 0.058434 0.221344
O171  O     O_R   0.561160 0.410312 0.039400 -0.208992
O172  O     O_R   0.505201 0.355811 0.057695 -0.368595
N31   N     N_R   0.036956 0.132646 0.063116 0.228061
O173  O     O_R   0.018215 0.150800 0.107642 -0.337655
O174  O     O_R   0.010618 0.088649 0.016809 -0.215643
N32   N     N_R   0.051122 0.865818 0.063305 0.223866
O175  O     O_R   0.054755 0.912738 0.044702 -0.190658
O176  O     O_R   0.003146 0.854663 0.064634 -0.363846
N33   N     N_R   0.640475 0.713290 0.680633 0.268575
O177  O     O_R   0.654957 0.666940 0.674205 -0.213632
O178  O     O_R   0.674862 0.732540 0.770097 -0.208726
N34   N     N_R   0.642691 0.288513 0.680769 0.253213
O179  O     O_R   0.649626 0.336334 0.705961 -0.194051
O180  O     O_R   0.698424 0.258973 0.737598 -0.306024
N35   N     N_R   0.143122 0.220322 0.685421 0.269222
O181  O     O_R   0.160598 0.173659 0.686457 -0.221397
O182  O     O_R   0.175750 0.243181 0.771488 -0.210934
N36   N     N_R   0.148768 0.770139 0.689825 0.252932
O183  O     O_R   0.171810 0.817050 0.717043 -0.213430
O184  O     O_R   0.194237 0.732877 0.738811 -0.308783
N37   N     N_R   0.535027 0.722555 0.682944 0.259961
O185  O     O_R   0.558413 0.676919 0.719226 -0.172279
O186  O     O_R   0.530949 0.755912 0.731427 -0.328949
N38   N     N_R   0.533776 0.288285 0.677057 0.255133
O187  O     O_R   0.535814 0.257110 0.733563 -0.315129
O188  O     O_R   0.531039 0.337239 0.685881 -0.193149
N39   N     N_R   0.036116 0.225777 0.684812 0.265774
O189  O     O_R   0.066705 0.182313 0.727795 -0.173050
O190  O     O_R   0.028339 0.258684 0.729770 -0.332832
N40   N     N_R   0.041502 0.765898 0.692630 0.254063
O191  O     O_R   0.021640 0.732971 0.721689 -0.327998
O192  O     O_R   0.087265 0.801533 0.755490 -0.188233
N41   N     N_R   0.338298 0.814588 0.259925 0.269960
O193  O     O_R   0.304242 0.821362 0.165273 -0.185580
O194  O     O_R   0.336344 0.850013 0.307842 -0.288461
N42   N     N_R   0.346587 0.162589 0.292551 0.245921
O195  O     O_R   0.350874 0.136617 0.356582 -0.299088
O196  O     O_R   0.308848 0.144319 0.201341 -0.203589
N43   N     N_R   0.835339 0.303278 0.248052 0.274611
O197  O     O_R   0.798828 0.303005 0.151530 -0.184431
O198  O     O_R   0.835669 0.344138 0.289070 -0.282358
N44   N     N_R   0.845326 0.668170 0.291925 0.245305
O199  O     O_R   0.861225 0.641650 0.364881 -0.300235
O200  O     O_R   0.805291 0.647418 0.202073 -0.202033

loop_
_geom_bond_atom_site_label_1
_geom_bond_atom_site_label_2
_geom_bond_distance
_ccdc_geom_bond_type
C31   C35   1.433189 A    
C61   C65   1.418547 A    
N21   O153  1.302701 A    
Zn5   O21   1.964733 S    
N39   O190  1.301352 A    
N23   O158  1.297310 A    
C70   C74   1.421347 A    
C71   N39   1.433119 S    
O112  H20   0.990534 S    
O23   C19   1.295838 A    
C64   C68   1.416617 A    
S17   O141  1.502309 D    
C63   C67   1.414688 A    
N3    O58   1.300919 A    
Zn8   O4    1.984535 S    
C49   N21   1.464178 S    
N42   O195  1.300961 A    
N34   O180  1.301210 A    
C82   C86   1.541271 S    
O42   C14   1.296102 A    
C100  N12   1.430637 S    
C27   C31   1.400894 A    
S14   O134  1.682630 S    
C116  N16   1.436425 S    
O100  H16   0.990651 S    
C32   C36   1.417557 A    
S9    O103  1.683930 S    
N26   O163  1.300874 A    
O46   C2    1.298654 A    
S7    O96   1.502354 D    
N1    O54   1.300893 A    
C77   C81   1.513940 S    
C102  S6    1.831613 S    
C104  S8    1.827821 S    
C74   C78   1.392508 A    
C59   C79   1.382529 A    
O34   C22   1.288222 A    
C80   C84   1.498431 S    
C15   C95   1.461288 S    
Zn3   O3    1.984385 S    
C10   C110  1.466989 S    
C13   C93   1.464815 S    
Zn16  O28   1.966053 S    
N36   O184  1.300656 A    
O28   C24   1.296244 A    
C56   N32   1.467299 S    
C99   N11   1.435547 S    
C91   C104  1.499313 S    
Zn4   O40   1.963023 S    
N40   O192  1.298838 A    
C58   C62   1.390305 A    
C67   N35   1.428019 S    
O11   C7    1.301292 A    
C113  N13   1.433980 S    
C89   C93   1.393918 A    
N8    O80   1.301757 A    
O137  H23   0.990516 S    
C115  C116  1.428124 A    
S12   O112  1.679735 S    
O143  H25   0.990525 S    
N4    O59   1.300422 A    
N32   O176  1.302035 A    
N20   O127  1.300941 A    
C30   C34   1.414991 A    
C110  C114  1.423901 A    
S13   O131  1.680911 S    
C107  C108  1.356139 A    
N5    O73   1.300119 A    
O16   C12   1.294457 A    
C102  S10   1.797959 S    
O72   H12   0.990480 S    
Zn16  O4    1.967219 S    
C103  S11   1.828217 S    
S20   O150  1.502446 D    
Zn12  O4    1.953045 S    
N6    O76   1.302175 A    
C107  C120  1.501624 S    
C69   N37   1.431922 S    
Zn2   O10   1.945326 S    
C90   C101  1.495512 S    
C105  C118  1.504595 S    
C57   C61   1.382931 A    
C20   C41   1.465390 S    
C26   C54   1.506508 S    
N14   O115  1.300672 A    
Zn6   O14   1.955362 S    
N38   O188  1.300220 A    
N12   O88   1.301126 A    
Zn7   O3    1.969882 S    
N29   O169  1.301701 A    
C60   C80   1.351000 A    
N31   O173  1.300552 A    
C53   N29   1.464000 S    
S17   O143  1.683306 S    
C94   C98   1.427392 A    
C70   N38   1.422543 S    
N35   O182  1.300722 A    
C25   C53   1.513435 S    
O25   C21   1.295139 A    
C117  S13   1.812370 S    
S18   O146  1.683567 S    
N30   O172  1.301972 A    
N27   O165  1.301407 A    
C51   C55   1.533418 S    
C108  C119  1.500094 S    
N33   O177  1.301095 A    
O24   C20   1.293644 A    
Zn11  O19   1.953997 S    
C99   C100  1.417465 A    
N37   O185  1.300500 A    
Zn10  O2    1.953045 S    
C6    C62   1.457902 S    
C7    C63   1.458407 S    
O149  H27   0.990508 S    
Zn9   O49   1.954947 S    
C119  C120  1.574851 S    
Zn4   O4    1.969734 S    
O63   H9    0.990220 S    
N2    O56   1.300578 A    
C117  C118  1.575390 S    
O5    C1    1.287734 A    
Zn7   O23   1.964733 S    
C28   C48   1.390512 A    
C35   C39   1.434679 A    
Zn8   O24   1.957517 S    
N28   O167  1.300808 A    
N20   O128  1.302120 A    
S12   O111  1.494142 D    
C114  N14   1.435125 S    
C75   C79   1.406463 A    
C17   C44   1.465708 S    
C85   N5    1.466311 S    
C19   C42   1.468671 S    
N10   O83   1.300308 A    
Zn12  O52   1.953486 S    
O22   C18   1.297255 A    
S5    O89   1.499684 D    
C33   N1    1.432480 S    
Zn13  O41   1.961059 S    
C4    C73   1.466988 S    
O50   C6    1.284063 A    
S20   O152  1.683516 S    
N9    O81   1.301217 A    
Zn16  O44   1.953951 S    
Zn1   O37   1.955612 S    
Zn2   O34   1.964741 S    
C55   N31   1.467615 S    
C67   C71   1.410970 A    
N17   O122  1.301859 A    
C58   C78   1.369433 A    
Zn6   O22   1.957517 S    
C42   C46   1.392082 A    
C98   N10   1.433097 S    
S11   O109  1.685042 S    
O140  H24   0.990519 S    
C113  C114  1.413484 A    
C117  N17   1.470421 S    
C51   N23   1.463773 S    
N22   O155  1.303333 A    
N41   O194  1.301022 A    
N18   O124  1.302250 A    
Zn10  O50   1.953486 S    
C54   N30   1.467000 S    
N16   O120  1.300336 A    
C83   C87   1.529767 S    
C84   C88   1.550060 S    
C37   S17   1.770609 S    
S16   O138  1.501716 D    
S15   O136  1.501968 D    
O66   H10   0.990543 S    
C48   C52   1.491158 S    
C50   N22   1.463017 S    
O26   C22   1.295420 A    
O31   C19   1.281576 A    
C59   C87   1.484031 S    
C57   C77   1.379794 A    
N13   O113  1.301163 A    
C60   C64   1.382572 A    
S1    O61   1.501636 D    
C12   C112  1.463178 S    
Zn5   O45   1.945119 S    
S8    O98   1.500256 D    
C55   N27   1.463349 S    
Zn7   O47   1.945119 S    
Zn8   O48   1.946278 S    
C45   C49   1.471436 S    
C90   C94   1.388008 A    
C47   C51   1.471224 S    
N19   O126  1.302239 A    
O51   C7    1.286381 A    
C25   C29   1.397795 A    
C44   C48   1.386163 A    
O8    C4    1.294577 A    
N36   O183  1.301103 A    
C27   C55   1.513325 S    
C37   C41   1.423965 A    
S1    O62   1.503500 D    
C54   N26   1.456649 S    
C39   C43   1.423840 A    
C76   C80   1.386074 A    
C83   N43   1.463054 S    
N31   O174  1.301363 A    
S5    O91   1.678643 S    
C109  C113  1.427583 A    
C69   C73   1.416575 A    
O52   C8    1.284102 A    
Zn1   O1    1.984385 S    
C79   C83   1.516389 S    
O40   C12   1.294313 A    
Zn13  O1    1.953047 S    
O29   C17   1.277880 A    
C84   S4    1.795458 S    
Zn14  O6    1.955100 S    
Zn3   O11   1.946484 S    
S6    O92   1.498307 D    
Zn15  O27   1.973293 S    
S19   O149  1.683253 S    
C28   C32   1.398100 A    
S9    O102  1.497683 D    
N10   O84   1.301287 A    
O9    C5    1.302171 A    
N1    O53   1.301339 A    
C40   S20   1.780403 S    
O41   C13   1.288522 A    
O13   C9    1.300044 A    
O103  H17   0.990233 S    
S11   O107  1.494786 D    
C93   C97   1.416911 A    
S10   O104  1.496824 D    
O18   C14   1.274299 A    
C23   C31   1.491784 S    
C49   H1    1.113174 S    
O6    C2    1.294490 A    
C96   C100  1.426071 A    
N25   O162  1.299090 A    
C51   H3    1.112918 S    
C53   N25   1.464637 S    
Zn9   O29   1.966290 S    
C120  S16   1.805588 S    
N24   O160  1.300125 A    
Zn11  O31   1.966290 S    
S16   O140  1.681150 S    
C82   S2    1.799100 S    
S4    O70   1.503034 D    
Zn13  O25   1.973293 S    
S14   O133  1.501397 D    
N7    O77   1.300230 A    
C101  S9    1.829533 S    
S7    O95   1.499558 D    
N43   O198  1.301993 A    
C105  C106  1.360773 A    
Zn15  O3    1.953047 S    
Zn11  O3    1.967211 S    
C66   N34   1.435193 S    
C88   H8    1.109739 S    
O43   C15   1.288132 A    
S18   O145  1.503236 D    
Zn5   O1    1.969882 S    
N44   O199  1.301300 A    
C26   C30   1.393952 A    
C72   N40   1.432403 S    
S1    O63   1.683178 S    
C106  C110  1.402532 A    
S13   O130  1.502886 D    
N24   O159  1.302798 A    
O35   C23   1.290424 A    
O17   C13   1.280158 A    
S10   O106  1.680404 S    
S20   O151  1.503094 D    
C103  S7    1.828717 S    
N23   O157  1.303066 A    
O32   C20   1.281836 A    
C83   S3    1.801068 S    
C36   N4    1.429190 S    
C119  S15   1.805301 S    
N14   O116  1.301274 A    
S14   O132  1.500511 D    
C120  N20   1.469326 S    
N21   O154  1.298484 A    
Zn9   O17   1.953997 S    
C87   N7    1.466418 S    
C39   S19   1.772603 S    
C84   N44   1.467915 S    
S17   O142  1.503309 D    
N11   O86   1.301230 A    
C8    C64   1.451227 S    
Zn14  O42   1.953951 S    
O7    C3    1.291125 A    
N34   O179  1.300813 A    
Zn2   O38   1.963023 S    
C86   N6    1.466814 S    
S3    O67   1.501595 D    
O19   C15   1.279058 A    
C16   C96   1.468772 S    
N12   O87   1.300274 A    
C40   C44   1.425380 A    
C65   N33   1.430561 S    
O37   C9    1.288475 A    
N15   O117  1.301010 A    
C34   N2    1.430412 S    
O39   C11   1.291716 A    
C115  N15   1.432757 S    
C106  C117  1.511956 S    
C25   C45   1.355226 A    
O47   C3    1.284690 A    
C11   C111  1.460310 S    
Zn4   O36   1.964741 S    
C66   C70   1.410992 A    
N40   O191  1.301407 A    
O36   C24   1.289503 A    
N28   O168  1.298275 A    
O12   C8    1.283397 A    
S4    O72   1.682087 S    
C85   H5    1.112961 S    
C36   C40   1.415476 A    
C65   C69   1.410987 A    
N8    O79   1.299694 A    
Zn3   O35   1.957520 S    
S18   O144  1.501930 D    
Zn15  O43   1.961059 S    
C68   C72   1.424745 A    
C52   N24   1.460177 S    
C91   C95   1.391079 A    
C52   H4    1.113947 S    
N32   O175  1.300046 A    
C92   C103  1.491385 S    
C59   C63   1.379431 A    
C112  C116  1.424683 A    
C57   C85   1.485651 S    
C58   C86   1.492242 S    
Zn6   O46   1.946278 S    
S15   O135  1.502375 D    
N5    O74   1.302630 A    
O131  H21   0.990538 S    
C81   S1    1.799998 S    
O94   H14   0.990649 S    
N42   O196  1.300880 A    
N6    O75   1.299475 A    
N44   O200  1.300547 A    
C18   C43   1.476540 S    
S2    O65   1.502196 D    
C81   C85   1.533500 S    
O134  H22   0.990656 S    
C103  C104  1.581442 S    
C92   C96   1.386675 A    
N38   O187  1.299041 A    
C101  C102  1.582724 S    
N39   O189  1.300539 A    
N29   O170  1.301041 A    
C1    C76   1.458466 S    
C56   N28   1.459061 S    
C2    C75   1.468283 S    
C73   C77   1.403342 A    
N35   O181  1.300870 A    
C81   N41   1.463362 S    
O38   C10   1.296910 A    
S7    O97   1.678963 S    
N19   O125  1.301132 A    
C14   C94   1.467395 S    
C89   C90   1.372376 A    
S10   O105  1.494393 D    
Zn2   O2    1.969734 S    
C9    C109  1.462165 S    
Zn14  O2    1.967219 S    
Zn12  O32   1.973540 S    
C72   C76   1.426429 A    
N30   O171  1.300304 A    
N22   O156  1.300033 A    
N41   O193  1.302097 A    
C26   C46   1.388948 A    
C97   C98   1.416439 A    
C71   C75   1.417161 A    
N33   O178  1.300555 A    
C60   C88   1.491578 S    
C88   N8    1.466519 S    
N17   O121  1.300994 A    
O21   C17   1.297767 A    
S16   O139  1.502748 D    
C107  C111  1.388136 A    
N37   O186  1.301022 A    
C50   C54   1.514861 S    
O109  H19   0.990317 S    
S3    O69   1.683504 S    
O49   C5    1.286509 A    
C49   C53   1.536440 S    
O10   C6    1.286414 A    
O152  H28   0.990940 S    
C27   C47   1.367211 A    
N2    O55   1.300948 A    
Zn10  O30   1.973540 S    
Zn12  O20   1.961105 S    
C111  C115  1.423171 A    
C41   C45   1.364912 A    
Zn14  O26   1.966053 S    
Zn15  O7    1.953638 S    
C91   C92   1.370633 A    
Zn1   O9    1.946484 S    
C89   C102  1.499408 S    
N7    O78   1.302714 A    
S13   O129  1.498128 D    
Zn3   O39   1.955612 S    
Zn4   O12   1.945326 S    
Zn11  O51   1.954947 S    
Zn5   O13   1.962770 S    
N27   O166  1.299176 A    
C33   C37   1.435739 A    
Zn6   O2    1.984535 S    
Zn7   O15   1.962770 S    
C28   C56   1.511051 S    
Zn13  O5    1.953638 S    
Zn8   O16   1.955362 S    
N43   O197  1.302350 A    
S5    O90   1.502157 D    
C105  C109  1.392448 A    
S2    O64   1.502931 D    
O106  H18   0.990517 S    
C95   C99   1.416669 A    
O27   C23   1.299740 A    
C108  C112  1.390490 A    
C21   C29   1.484164 S    
N9    O82   1.301207 A    
C104  S12   1.790920 S    
S6    O93   1.503164 D    
N26   O164  1.297668 A    
S19   O148  1.503242 D    
S8    O100  1.680427 S    
O91   H13   0.990674 S    
S9    O101  1.495234 D    
Zn10  O18   1.961105 S    
C82   N42   1.466189 S    
N15   O118  1.300870 A    
C46   C50   1.497437 S    
C119  N19   1.468855 S    
Zn9   O1    1.967211 S    
C5    C61   1.459986 S    
C87   H7    1.113022 S    
S6    O94   1.680538 S    
N18   O123  1.301020 A    
C24   C32   1.483259 S    
N25   O161  1.301211 A    
C38   C42   1.426925 A    
O45   C1    1.283503 A    
N16   O119  1.301343 A    
S8    O99   1.501910 D    
O33   C21   1.291572 A    
S2    O66   1.682349 S    
S4    O71   1.502400 D    
C62   C66   1.415596 A    
S15   O137  1.680563 S    
N11   O85   1.301184 A    
O15   C11   1.295581 A    
C101  S5    1.828596 S    
S12   O110  1.498605 D    
N13   O114  1.300548 A    
S19   O147  1.502695 D    
O44   C16   1.296083 A    
C118  N18   1.471870 S    
O20   C16   1.274847 A    
C38   S18   1.776239 S    
C118  S14   1.816327 S    
C34   C38   1.415928 A    
S3    O68   1.503417 D    
O48   C4    1.297886 A    
O69   H11   0.990206 S    
C35   N3    1.433882 S    
O97   H15   0.990572 S    
C86   H6    1.110609 S    
O14   C10   1.293728 A    
C97   N9    1.435266 S    
C3    C74   1.467162 S    
Zn16  O8    1.955100 S    
C78   C82   1.503697 S    
C68   N36   1.432648 S    
C43   C47   1.372109 A    
C50   H2    1.113301 S    
N3    O57   1.301540 A    
O146  H26   0.991233 S    
N4    O60   1.300736 A    
Zn1   O33   1.957520 S    
C22   C30   1.479169 S    
C29   C33   1.431492 A    
C52   C56   1.512971 S    
S11   O108  1.497989 D    
O30   C18   1.282923 A    
