data_mof_unit_4384.cif
_audit_creation_date              2012-12-10T18:45:31-0500
_audit_creation_method            fapswitch 2.2
_symmetry_space_group_name_H-M    P1
_symmetry_Int_Tables_number       1
_space_group_crystal_system       triclinic
_cell_length_a                    18.314056
_cell_length_b                    18.117346
_cell_length_c                    43.166625
_cell_angle_alpha                 89.982529
_cell_angle_beta                  89.973766
_cell_angle_gamma                 90.108879
_cell_volume                      14322.7483277

loop_
_atom_site_label
_atom_site_type_symbol
_atom_type_description
_atom_site_fract_x
_atom_site_fract_y
_atom_site_fract_z
_atom_type_partial_charge
C1    C     C_R   0.499949 0.000131 0.334286 0.889298
C2    C     C_R   0.499918 0.999823 0.665715 0.898033
C3    C     C_R   0.000727 0.500046 0.334372 0.923808
C4    C     C_R   0.000290 0.500078 0.665613 0.937364
C5    C     C_R   0.999891 0.500311 0.834297 0.888419
C6    C     C_R   0.999775 0.500769 0.165738 0.899087
C7    C     C_R   0.500106 0.999916 0.834388 0.916771
C8    C     C_R   0.500123 0.999813 0.165671 0.927239
C9    C     C_R   0.500671 0.998646 0.131117 -0.354715
C10   C     C_R   0.500925 0.999439 0.869064 -0.371366
C11   C     C_R   0.998302 0.504260 0.131139 -0.343544
C12   C     C_R   0.999247 0.502365 0.868988 -0.360918
C13   C     C_R   0.004102 0.500217 0.630971 -0.365578
C14   C     C_R   0.005466 0.500355 0.368973 -0.380799
C15   C     C_R   0.499516 0.999241 0.631048 -0.340204
C16   C     C_R   0.499735 0.000506 0.368967 -0.362382
C17   C     C_R   0.017504 0.499744 0.468522 0.318267
C18   C     C_R   0.017117 0.498450 0.531254 0.348917
C19   C     C_R   0.499259 0.000274 0.468408 0.373163
C20   C     C_R   0.499106 0.999553 0.531149 0.440474
C21   C     C_R   0.502778 0.997539 0.968811 0.341038
C22   C     C_R   0.501996 0.995010 0.031550 0.453633
C23   C     C_R   0.996223 0.509324 0.968482 0.374821
C24   C     C_R   0.993721 0.511605 0.031257 0.440463
C25   C     C_R   0.640598 0.142490 0.250533 0.964112
C26   C     C_R   0.359458 0.857488 0.749586 0.958202
C27   C     C_R   0.858215 0.641414 0.250251 0.959363
C28   C     C_R   0.141067 0.357999 0.750109 0.951168
C29   C     C_R   0.360001 0.856884 0.250808 0.963580
C30   C     C_R   0.640771 0.142342 0.749705 0.962579
C31   C     C_R   0.141800 0.358687 0.250235 0.954954
C32   C     C_R   0.859308 0.642374 0.750259 0.943003
C33   C     C_R   0.140359 0.642778 0.750535 0.959320
C34   C     C_R   0.859066 0.357686 0.249626 0.958732
C35   C     C_R   0.357697 0.140877 0.750462 0.958167
C36   C     C_R   0.641454 0.858344 0.249810 0.948758
C37   C     C_R   0.860054 0.356771 0.750788 0.964681
C38   C     C_R   0.140629 0.642502 0.249553 0.959920
C39   C     C_R   0.641735 0.858594 0.750142 0.953316
C40   C     C_R   0.359262 0.142390 0.250192 0.942414
C41   C     C_3   0.231175 0.195720 0.268415 0.277705
C42   C     C_3   0.773215 0.808307 0.732522 0.283511
C43   C     C_3   0.810947 0.220631 0.261830 0.275420
C44   C     C_3   0.189421 0.780977 0.738067 0.275786
C45   C     C_3   0.770625 0.806206 0.267588 0.277396
C46   C     C_3   0.225577 0.191611 0.733073 0.290815
C47   C     C_3   0.188958 0.780383 0.261203 0.276469
C48   C     C_3   0.812498 0.216511 0.740148 0.269042
C49   C     C_3   0.730458 0.695168 0.768094 0.277572
C50   C     C_3   0.272502 0.308402 0.232313 0.288074
C51   C     C_3   0.310752 0.719841 0.762034 0.278670
C52   C     C_3   0.687988 0.279745 0.238430 0.276143
C53   C     C_3   0.269960 0.304780 0.768358 0.281829
C54   C     C_3   0.727761 0.692371 0.232394 0.286013
C55   C     C_3   0.689256 0.280512 0.761092 0.275577
C56   C     C_3   0.312202 0.717706 0.239714 0.269554
C57   C     C_3   0.190149 0.221625 0.239260 0.244074
C58   C     C_3   0.813491 0.781787 0.761807 0.241704
C59   C     C_3   0.770255 0.191977 0.233139 0.251925
C60   C     C_3   0.229650 0.808776 0.767204 0.235099
C61   C     C_3   0.811237 0.778608 0.238602 0.244150
C62   C     C_3   0.185640 0.219421 0.762170 0.244119
C63   C     C_3   0.231985 0.806791 0.232712 0.251031
C64   C     C_3   0.769151 0.191681 0.769078 0.227963
C65   C     C_3   0.690373 0.721624 0.738827 0.248495
C66   C     C_3   0.313952 0.282285 0.261327 0.240602
C67   C     C_3   0.270134 0.691683 0.733243 0.258805
C68   C     C_3   0.728424 0.308465 0.267350 0.243408
C69   C     C_3   0.309963 0.277089 0.739278 0.248127
C70   C     C_3   0.687124 0.720333 0.261303 0.249291
C71   C     C_3   0.732497 0.305695 0.732496 0.252833
C72   C     C_3   0.269178 0.691664 0.268517 0.231313
C73   C     C_3   0.199663 0.302337 0.250603 -0.295585
C74   C     C_3   0.803769 0.701005 0.750401 -0.285356
C75   C     C_3   0.697463 0.200068 0.251005 -0.280620
C76   C     C_3   0.302843 0.799786 0.749571 -0.279683
C77   C     C_3   0.800809 0.698478 0.250505 -0.288929
C78   C     C_3   0.196911 0.299645 0.750434 -0.283025
C79   C     C_3   0.303816 0.798475 0.251350 -0.290430
C80   C     C_3   0.697965 0.199560 0.750036 -0.274895
C81   C     C_3   0.699640 0.802255 0.750357 -0.295627
C82   C     C_3   0.303874 0.201287 0.250220 -0.285634
C83   C     C_3   0.196739 0.700912 0.750721 -0.294010
C84   C     C_3   0.801646 0.300429 0.249418 -0.281026
C85   C     C_3   0.299211 0.196839 0.750963 -0.293469
C86   C     C_3   0.697887 0.800488 0.249497 -0.279709
C87   C     C_3   0.804223 0.297881 0.751292 -0.291229
C88   C     C_3   0.197775 0.699824 0.249608 -0.278197
C89   C     C_3   0.242081 0.275523 0.279675 0.261995
C90   C     C_3   0.762880 0.728486 0.721135 0.261226
C91   C     C_3   0.738981 0.229553 0.279888 0.258946
C92   C     C_3   0.261995 0.770625 0.720618 0.258834
C93   C     C_3   0.759127 0.727011 0.279446 0.259471
C94   C     C_3   0.237700 0.271000 0.721390 0.252366
C95   C     C_3   0.259672 0.771520 0.280072 0.273310
C96   C     C_3   0.741733 0.225558 0.721338 0.268061
C97   C     C_3   0.740943 0.774826 0.779629 0.262224
C98   C     C_3   0.262014 0.228483 0.221102 0.261977
C99   C     C_3   0.238460 0.729606 0.779748 0.264775
C100  C     C_3   0.760153 0.270699 0.220530 0.260586
C101  C     C_3   0.258193 0.225531 0.780134 0.255494
C102  C     C_3   0.739193 0.771645 0.220482 0.250876
C103  C     C_3   0.759795 0.272018 0.780115 0.273270
C104  C     C_3   0.241421 0.727137 0.220988 0.266277
C105  C     C_R   0.516472 0.063656 0.114083 0.319284
C106  C     C_R   0.516291 0.933276 0.885478 0.324260
C107  C     C_R   0.930846 0.513287 0.115201 0.314850
C108  C     C_R   0.065740 0.506740 0.885903 0.326037
C109  C     C_R   0.485945 0.932008 0.114882 0.323136
C110  C     C_R   0.486587 0.065018 0.885968 0.322355
C111  C     C_R   0.063933 0.499751 0.113766 0.315703
C112  C     C_R   0.931841 0.501162 0.885427 0.327090
C113  C     C_R   0.032864 0.562047 0.614819 0.329835
C114  C     C_R   0.033085 0.438181 0.385060 0.328844
C115  C     C_R   0.432674 0.003590 0.614393 0.315503
C116  C     C_R   0.566592 0.003750 0.385687 0.327538
C117  C     C_R   0.980675 0.437770 0.613886 0.329907
C118  C     C_R   0.984554 0.563546 0.386159 0.328938
C119  C     C_R   0.565997 0.994001 0.614278 0.312762
C120  C     C_R   0.432655 0.997697 0.385607 0.328613
C121  C     C_R   0.509276 0.063265 0.081523 0.349782
C122  C     C_R   0.515932 0.932419 0.918180 0.351214
C123  C     C_R   0.929140 0.506057 0.082599 0.341132
C124  C     C_R   0.064706 0.504370 0.918604 0.346173
C125  C     C_R   0.493846 0.929813 0.082383 0.348099
C126  C     C_R   0.489127 0.064763 0.918665 0.354324
C127  C     C_R   0.062075 0.513552 0.081519 0.342480
C128  C     C_R   0.931350 0.509398 0.917947 0.345174
C129  C     C_R   0.038777 0.561184 0.582179 0.349872
C130  C     C_R   0.042714 0.440231 0.417457 0.350998
C131  C     C_R   0.433067 0.992465 0.581954 0.340895
C132  C     C_R   0.566220 0.998850 0.418317 0.346339
C133  C     C_R   0.988113 0.436162 0.581338 0.358345
C134  C     C_R   0.986538 0.562717 0.418842 0.351565
C135  C     C_R   0.565451 0.005215 0.581850 0.341716
C136  C     C_R   0.432749 0.002539 0.418241 0.345343
C137  C     C_R   0.501846 0.995919 0.065689 -0.272163
C138  C     C_R   0.502893 0.998297 0.934740 -0.284413
C139  C     C_R   0.994835 0.510775 0.065631 -0.263151
C140  C     C_R   0.997564 0.507860 0.934443 -0.287974
C141  C     C_R   0.015887 0.498324 0.565453 -0.286081
C142  C     C_R   0.016773 0.501388 0.434520 -0.286462
C143  C     C_R   0.499193 0.999070 0.565491 -0.258561
C144  C     C_R   0.499413 0.000591 0.434416 -0.287477
N1    N     N_R   0.565081 0.984544 0.015659 -0.183492
N2    N     N_R   0.439760 0.008392 0.984697 -0.168997
N3    N     N_R   0.034373 0.561036 0.015112 -0.173616
N4    N     N_R   0.954942 0.460171 0.984447 -0.152307
N5    N     N_R   0.439338 0.006701 0.015542 -0.184677
N6    N     N_R   0.565384 0.985130 0.984792 -0.167274
N7    N     N_R   0.954138 0.461156 0.015247 -0.180630
N8    N     N_R   0.035903 0.559924 0.984317 -0.154600
N9    N     N_R   0.079925 0.511601 0.515414 -0.151551
N10   N     N_R   0.954779 0.486877 0.484339 -0.168567
N11   N     N_R   0.538012 0.050689 0.515190 -0.175417
N12   N     N_R   0.459952 0.949223 0.484187 -0.153771
N13   N     N_R   0.954674 0.485875 0.515164 -0.142977
N14   N     N_R   0.080196 0.511869 0.484532 -0.174819
N15   N     N_R   0.460245 0.948814 0.514981 -0.175291
N16   N     N_R   0.538456 0.050988 0.484396 -0.153591
O1    O     O_3   0.500000 0.000000 0.250000 -0.535381
O2    O     O_3   0.500000 0.000000 0.750000 -0.532102
O3    O     O_3   0.000000 0.500000 0.250000 -0.532956
O4    O     O_3   1.000000 0.500000 0.750000 -0.535126
O5    O     O_R   0.438450 0.000020 0.319320 -0.619331
O6    O     O_R   0.561550 0.999980 0.680680 -0.633998
O7    O     O_R   0.999980 0.438450 0.319320 -0.624791
O8    O     O_R   0.000020 0.561550 0.680680 -0.635032
O9    O     O_R   0.561550 0.999980 0.319320 -0.620281
O10   O     O_R   0.438450 0.000020 0.680680 -0.633100
O11   O     O_R   0.000020 0.561550 0.319320 -0.626611
O12   O     O_R   0.999980 0.438450 0.680680 -0.642808
O13   O     O_R   0.938450 0.500020 0.819320 -0.620153
O14   O     O_R   0.061550 0.499980 0.180680 -0.633219
O15   O     O_R   0.499980 0.938450 0.819320 -0.627809
O16   O     O_R   0.500020 0.061550 0.180680 -0.636589
O17   O     O_R   0.061550 0.499980 0.819320 -0.620870
O18   O     O_R   0.938450 0.500020 0.180680 -0.640107
O19   O     O_R   0.500020 0.061550 0.819320 -0.628564
O20   O     O_R   0.499980 0.938450 0.180680 -0.639052
O21   O     O_R   0.648010 0.086580 0.268180 -0.615028
O22   O     O_R   0.351990 0.913420 0.731820 -0.637813
O23   O     O_R   0.913420 0.648010 0.268180 -0.620949
O24   O     O_R   0.086580 0.351990 0.731820 -0.631531
O25   O     O_R   0.351990 0.913420 0.268180 -0.610755
O26   O     O_R   0.648010 0.086580 0.731820 -0.635788
O27   O     O_R   0.086580 0.351990 0.268180 -0.620307
O28   O     O_R   0.913420 0.648010 0.731820 -0.629895
O29   O     O_R   0.148010 0.586580 0.768180 -0.611291
O30   O     O_R   0.851990 0.413420 0.231820 -0.633763
O31   O     O_R   0.413420 0.148010 0.768180 -0.617199
O32   O     O_R   0.586580 0.851990 0.231820 -0.631693
O33   O     O_R   0.851990 0.413420 0.768180 -0.610570
O34   O     O_R   0.148010 0.586580 0.231820 -0.637611
O35   O     O_R   0.586580 0.851990 0.768180 -0.617704
O36   O     O_R   0.413420 0.148010 0.231820 -0.630035
O37   O     O_R   0.413460 0.851950 0.231830 -0.626111
O38   O     O_R   0.586540 0.148050 0.768170 -0.626629
O39   O     O_R   0.148050 0.413460 0.231830 -0.617254
O40   O     O_R   0.851950 0.586540 0.768170 -0.625099
O41   O     O_R   0.586540 0.148050 0.231830 -0.617844
O42   O     O_R   0.413460 0.851950 0.768170 -0.628336
O43   O     O_R   0.851950 0.586540 0.231830 -0.615388
O44   O     O_R   0.148050 0.413460 0.768170 -0.623878
O45   O     O_R   0.913460 0.351950 0.731830 -0.628249
O46   O     O_R   0.086540 0.648050 0.268170 -0.624317
O47   O     O_R   0.648050 0.913460 0.731830 -0.620409
O48   O     O_R   0.351950 0.086540 0.268170 -0.622987
O49   O     O_R   0.086540 0.648050 0.731830 -0.622785
O50   O     O_R   0.913460 0.351950 0.268170 -0.625219
O51   O     O_R   0.351950 0.086540 0.731830 -0.621036
O52   O     O_R   0.648050 0.913460 0.268170 -0.623761
Zn1   Zn    Zn3+2 0.499980 0.087890 0.224030 1.001254
Zn2   Zn    Zn3+2 0.500020 0.912110 0.775970 1.007850
Zn3   Zn    Zn3+2 0.912110 0.499980 0.224030 0.995093
Zn4   Zn    Zn3+2 0.087890 0.500020 0.775970 1.007297
Zn5   Zn    Zn3+2 0.500020 0.912110 0.224030 0.999681
Zn6   Zn    Zn3+2 0.499980 0.087890 0.775970 1.009026
Zn7   Zn    Zn3+2 0.087890 0.500020 0.224030 0.994859
Zn8   Zn    Zn3+2 0.912110 0.499980 0.775970 1.005801
Zn9   Zn    Zn3+2 0.999980 0.587890 0.724030 1.007069
Zn10  Zn    Zn3+2 0.000020 0.412110 0.275970 1.010864
Zn11  Zn    Zn3+2 0.412110 0.999980 0.724030 0.994678
Zn12  Zn    Zn3+2 0.587890 0.000020 0.275970 1.005252
Zn13  Zn    Zn3+2 0.000020 0.412110 0.724030 1.000823
Zn14  Zn    Zn3+2 0.999980 0.587890 0.275970 1.010452
Zn15  Zn    Zn3+2 0.587890 0.000020 0.724030 0.995136
Zn16  Zn    Zn3+2 0.412110 0.999980 0.275970 1.007219
O53   O     O_3   0.122819 0.195189 0.227879 -0.610943
C145  C     C_3   0.129343 0.120054 0.219651 0.137630
H1    H     H_    0.146388 0.085621 0.239627 0.186505
H2    H     H_    0.169245 0.112140 0.200592 0.170669
C146  C     C_3   0.055542 0.092310 0.208761 -0.914442
H3    H     H_    0.038314 0.122563 0.187622 0.262295
H4    H     H_    0.058270 0.032485 0.203614 0.219225
H5    H     H_    0.014896 0.101188 0.227319 0.267108
O54   O     O_3   0.880183 0.809781 0.773312 -0.613906
C147  C     C_3   0.871714 0.884494 0.782279 0.130148
H6    H     H_    0.839596 0.889237 0.803925 0.169640
H7    H     H_    0.843849 0.918418 0.764410 0.174390
C148  C     C_3   0.946604 0.917777 0.788019 -0.911744
H8    H     H_    0.980361 0.913674 0.766793 0.259162
H9    H     H_    0.941298 0.976811 0.794229 0.223806
H10   H     H_    0.973964 0.887976 0.807229 0.260352
O55   O     O_3   0.783189 0.127120 0.215922 -0.624004
C149  C     C_3   0.852766 0.129586 0.202018 0.147127
H11   H     H_    0.893712 0.108582 0.218617 0.163235
H12   H     H_    0.869351 0.185919 0.194416 0.181166
C150  C     C_3   0.852594 0.079511 0.173745 -0.877795
H13   H     H_    0.813542 0.100482 0.156198 0.264049
H14   H     H_    0.908059 0.077600 0.163383 0.214164
H15   H     H_    0.835682 0.022868 0.180449 0.265232
O56   O     O_3   0.215510 0.872779 0.784861 -0.625614
C151  C     C_3   0.145626 0.868588 0.798669 0.118772
H16   H     H_    0.132490 0.812916 0.808016 0.176327
H17   H     H_    0.102921 0.883070 0.781630 0.171572
C152  C     C_3   0.142100 0.923695 0.825227 -0.879081
H18   H     H_    0.158103 0.979276 0.816859 0.267097
H19   H     H_    0.085903 0.925864 0.834800 0.214433
H20   H     H_    0.180043 0.907522 0.844048 0.248994
O57   O     O_3   0.878910 0.803331 0.226918 -0.611920
C153  C     C_3   0.875427 0.879560 0.220256 0.145828
H21   H     H_    0.876720 0.912333 0.241894 0.181140
H22   H     H_    0.825569 0.894770 0.207004 0.166121
C154  C     C_3   0.941819 0.900723 0.201168 -0.920430
H23   H     H_    0.939218 0.874445 0.177965 0.256032
H24   H     H_    0.944569 0.961460 0.198390 0.222381
H25   H     H_    0.991616 0.881786 0.213227 0.270274
O58   O     O_3   0.117287 0.195915 0.773608 -0.612349
C155  C     C_3   0.120752 0.121872 0.783858 0.138921
H26   H     H_    0.171882 0.108643 0.796529 0.171613
H27   H     H_    0.116701 0.083266 0.764082 0.158787
C156  C     C_3   0.056542 0.107657 0.805389 -0.917390
H28   H     H_    0.006231 0.130138 0.794899 0.269126
H29   H     H_    0.049213 0.047677 0.809234 0.223983
H30   H     H_    0.065368 0.135105 0.828053 0.248966
O59   O     O_3   0.221889 0.871057 0.214753 -0.620329
C157  C     C_3   0.151659 0.871741 0.201574 0.148571
H31   H     H_    0.112192 0.892660 0.218843 0.159691
H32   H     H_    0.133553 0.816355 0.193407 0.177736
C158  C     C_3   0.151783 0.924309 0.174088 -0.881990
H33   H     H_    0.191221 0.905415 0.156279 0.267357
H34   H     H_    0.096375 0.926860 0.163710 0.217229
H35   H     H_    0.168320 0.980366 0.181711 0.260836
O60   O     O_3   0.778650 0.129173 0.788238 -0.626874
C159  C     C_3   0.849586 0.128495 0.800922 0.116738
H36   H     H_    0.868347 0.184121 0.808553 0.170835
H37   H     H_    0.888419 0.106886 0.783616 0.170395
C160  C     C_3   0.851024 0.076735 0.828724 -0.884530
H38   H     H_    0.831265 0.021157 0.821870 0.264076
H39   H     H_    0.907645 0.072037 0.837685 0.222083
H40   H     H_    0.815493 0.097787 0.847542 0.249561
O61   O     O_3   0.623328 0.695363 0.727055 -0.611274
C161  C     C_3   0.630015 0.620363 0.718632 0.139041
H41   H     H_    0.645125 0.585464 0.738756 0.186672
H42   H     H_    0.671311 0.612535 0.700098 0.173920
C162  C     C_3   0.556969 0.593359 0.706552 -0.912358
H43   H     H_    0.541077 0.625066 0.685600 0.263981
H44   H     H_    0.560147 0.533936 0.700672 0.218188
H45   H     H_    0.515115 0.600880 0.724732 0.264764
O62   O     O_3   0.381353 0.310612 0.271899 -0.612654
C163  C     C_3   0.373023 0.385107 0.281132 0.139985
H46   H     H_    0.346330 0.388735 0.304118 0.167698
H47   H     H_    0.339942 0.418195 0.264623 0.174409
C164  C     C_3   0.447894 0.420687 0.283571 -0.915488
H48   H     H_    0.478510 0.413836 0.261564 0.264213
H49   H     H_    0.441946 0.480448 0.288283 0.222543
H50   H     H_    0.478817 0.394744 0.302779 0.256678
O63   O     O_3   0.282159 0.626792 0.715931 -0.619513
C165  C     C_3   0.352596 0.627269 0.702858 0.148957
H51   H     H_    0.392605 0.608752 0.720372 0.163424
H52   H     H_    0.369402 0.682499 0.694077 0.183150
C166  C     C_3   0.354063 0.573180 0.675935 -0.873999
H53   H     H_    0.314684 0.590365 0.657808 0.268730
H54   H     H_    0.409713 0.571022 0.665765 0.214611
H55   H     H_    0.338261 0.517353 0.684090 0.262389
O64   O     O_3   0.714301 0.372954 0.284673 -0.618336
C167  C     C_3   0.645421 0.368225 0.299257 0.122724
H56   H     H_    0.633125 0.312424 0.308689 0.175757
H57   H     H_    0.601889 0.382627 0.282669 0.165306
C168  C     C_3   0.643024 0.423217 0.325897 -0.875301
H58   H     H_    0.658952 0.478853 0.317541 0.270479
H59   H     H_    0.587112 0.425568 0.335780 0.214103
H60   H     H_    0.681486 0.406701 0.344475 0.249508
O65   O     O_3   0.377973 0.300488 0.727508 -0.611498
C169  C     C_3   0.375524 0.376306 0.720190 0.141707
H61   H     H_    0.372886 0.410207 0.741522 0.182212
H62   H     H_    0.328141 0.390320 0.705225 0.169307
C170  C     C_3   0.445079 0.396511 0.703047 -0.916168
H63   H     H_    0.445901 0.369739 0.679912 0.258103
H64   H     H_    0.448994 0.457156 0.700167 0.219839
H65   H     H_    0.492603 0.377230 0.716605 0.274035
O66   O     O_3   0.618944 0.696977 0.272896 -0.615879
C171  C     C_3   0.620901 0.620971 0.279963 0.157475
H66   H     H_    0.673229 0.603372 0.290810 0.170001
H67   H     H_    0.612261 0.588334 0.258625 0.176846
C172  C     C_3   0.559152 0.603514 0.302320 -0.932874
H68   H     H_    0.508365 0.630039 0.294154 0.272160
H69   H     H_    0.550444 0.543110 0.303646 0.225744
H70   H     H_    0.571981 0.624612 0.325821 0.251150
O67   O     O_3   0.722863 0.369174 0.713994 -0.618757
C173  C     C_3   0.652191 0.370511 0.701245 0.150171
H71   H     H_    0.613834 0.393836 0.718420 0.159385
H72   H     H_    0.632481 0.314944 0.694005 0.175520
C174  C     C_3   0.652484 0.420932 0.673059 -0.873685
H73   H     H_    0.691167 0.399998 0.655351 0.270747
H74   H     H_    0.596870 0.423556 0.662883 0.215231
H75   H     H_    0.669997 0.477322 0.679859 0.260128
O68   O     O_3   0.279904 0.628695 0.287277 -0.625344
C175  C     C_3   0.350799 0.629287 0.300037 0.114964
H76   H     H_    0.367891 0.684907 0.308325 0.172768
H77   H     H_    0.390442 0.610097 0.282539 0.168515
C176  C     C_3   0.353544 0.575983 0.327286 -0.878661
H78   H     H_    0.334747 0.520459 0.319915 0.263664
H79   H     H_    0.410351 0.571836 0.336086 0.222856
H80   H     H_    0.317798 0.595392 0.346352 0.251277
O69   O     O_3   0.215597 0.133451 0.286624 -0.605013
C177  C     C_3   0.146681 0.140837 0.300673 0.122470
H81   H     H_    0.104609 0.163818 0.284837 0.192999
H82   H     H_    0.149903 0.177204 0.321203 0.161985
C178  C     C_3   0.122378 0.064709 0.310596 -0.913039
H83   H     H_    0.168533 0.033706 0.320797 0.283854
H84   H     H_    0.077968 0.068131 0.327920 0.228450
H85   H     H_    0.103443 0.034942 0.289713 0.254081
O70   O     O_3   0.790641 0.869330 0.713648 -0.604008
C179  C     C_3   0.862874 0.862749 0.702592 0.132520
H86   H     H_    0.876551 0.805888 0.694723 0.187891
H87   H     H_    0.901749 0.878751 0.720900 0.175914
C180  C     C_3   0.872986 0.914796 0.675455 -0.920919
H88   H     H_    0.845935 0.968244 0.680289 0.283920
H89   H     H_    0.931708 0.924952 0.670984 0.236234
H90   H     H_    0.848944 0.889137 0.654619 0.249515
O71   O     O_3   0.879816 0.197015 0.272215 -0.598231
C181  C     C_3   0.874539 0.126484 0.285710 0.144119
H91   H     H_    0.853467 0.084828 0.269035 0.168733
H92   H     H_    0.838300 0.126687 0.306239 0.184913
C182  C     C_3   0.950166 0.104081 0.296432 -0.922013
H93   H     H_    0.982062 0.153552 0.303169 0.297578
H94   H     H_    0.946485 0.067573 0.316970 0.228816
H95   H     H_    0.979253 0.074876 0.277577 0.242660
O72   O     O_3   0.124379 0.809844 0.725573 -0.592058
C183  C     C_3   0.135894 0.883853 0.716294 0.142071
H96   H     H_    0.183218 0.889921 0.700475 0.168986
H97   H     H_    0.145604 0.920502 0.736419 0.175881
C184  C     C_3   0.068368 0.910911 0.699633 -0.932660
H98   H     H_    0.020481 0.903317 0.714822 0.263176
H99   H     H_    0.073517 0.970302 0.694169 0.233137
H100  H     H_    0.060297 0.879434 0.677879 0.268051
O73   O     O_3   0.786649 0.869445 0.285100 -0.601395
C185  C     C_3   0.852406 0.859335 0.301291 0.123141
H101  H     H_    0.895655 0.834247 0.286635 0.183085
H102  H     H_    0.844071 0.823380 0.321680 0.170183
C186  C     C_3   0.878040 0.934326 0.312126 -0.919079
H103  H     H_    0.831631 0.966652 0.321362 0.284447
H104  H     H_    0.919932 0.928746 0.330435 0.228717
H105  H     H_    0.900984 0.964157 0.292002 0.255504
O74   O     O_3   0.206671 0.130167 0.714763 -0.602326
C187  C     C_3   0.136876 0.140170 0.701432 0.155268
H106  H     H_    0.121702 0.198873 0.697292 0.192226
H107  H     H_    0.095021 0.115616 0.716674 0.160926
C188  C     C_3   0.134447 0.099931 0.670694 -0.924826
H108  H     H_    0.164867 0.047344 0.672654 0.286852
H109  H     H_    0.077430 0.086965 0.664128 0.226859
H110  H     H_    0.159218 0.134902 0.652414 0.248335
O75   O     O_3   0.119123 0.803638 0.270362 -0.598901
C189  C     C_3   0.122498 0.873358 0.284502 0.135135
H111  H     H_    0.148002 0.915427 0.269145 0.166633
H112  H     H_    0.153480 0.871257 0.306480 0.182133
C190  C     C_3   0.044903 0.895888 0.292032 -0.913201
H113  H     H_    0.014470 0.847255 0.300771 0.293420
H114  H     H_    0.044005 0.938067 0.310546 0.228837
H115  H     H_    0.017526 0.917314 0.270929 0.251964
O76   O     O_3   0.879147 0.186627 0.729598 -0.593929
C191  C     C_3   0.869089 0.111847 0.721093 0.155469
H116  H     H_    0.844330 0.107872 0.697807 0.152282
H117  H     H_    0.833183 0.080818 0.737305 0.175520
C192  C     C_3   0.942782 0.073521 0.720356 -0.916611
H118  H     H_    0.974324 0.086189 0.741631 0.268904
H119  H     H_    0.935147 0.012993 0.719056 0.229039
H120  H     H_    0.973933 0.092091 0.699793 0.249652
O77   O     O_3   0.713948 0.632470 0.785880 -0.605772
C193  C     C_3   0.645573 0.641177 0.800216 0.121974
H121  H     H_    0.603602 0.664280 0.784362 0.193534
H122  H     H_    0.649859 0.678076 0.820514 0.164961
C194  C     C_3   0.620399 0.565849 0.810746 -0.921190
H123  H     H_    0.666456 0.534174 0.820676 0.285035
H124  H     H_    0.576929 0.570778 0.828488 0.231635
H125  H     H_    0.599955 0.536084 0.790133 0.258411
O78   O     O_3   0.287348 0.370397 0.213626 -0.600576
C195  C     C_3   0.358891 0.366850 0.201696 0.125684
H126  H     H_    0.376209 0.309787 0.195479 0.180582
H127  H     H_    0.397806 0.389667 0.218767 0.175221
C196  C     C_3   0.362580 0.414361 0.172848 -0.919654
H128  H     H_    0.330523 0.465566 0.176330 0.286386
H129  H     H_    0.419650 0.430170 0.167522 0.228034
H130  H     H_    0.340432 0.382463 0.153093 0.253069
O79   O     O_3   0.379308 0.696001 0.772581 -0.600349
C197  C     C_3   0.373729 0.625605 0.786106 0.137179
H131  H     H_    0.349052 0.584490 0.770075 0.172207
H132  H     H_    0.340462 0.627217 0.807512 0.181777
C198  C     C_3   0.450160 0.601104 0.794768 -0.924103
H133  H     H_    0.483848 0.649724 0.801075 0.298229
H134  H     H_    0.448551 0.564109 0.815181 0.231450
H135  H     H_    0.476067 0.572144 0.775012 0.242601
O80   O     O_3   0.618964 0.300391 0.227081 -0.593364
C199  C     C_3   0.619949 0.372652 0.215068 0.155977
H136  H     H_    0.672289 0.387749 0.203586 0.166755
H137  H     H_    0.609973 0.412922 0.233855 0.149713
C200  C     C_3   0.558262 0.378761 0.191624 -0.925100
H138  H     H_    0.511373 0.344181 0.198982 0.280695
H139  H     H_    0.539184 0.436237 0.189356 0.226155
H140  H     H_    0.576910 0.359762 0.168632 0.252207
O81   O     O_3   0.286579 0.367853 0.785879 -0.602263
C201  C     C_3   0.352682 0.357356 0.801769 0.123881
H141  H     H_    0.395369 0.331951 0.786922 0.185453
H142  H     H_    0.344683 0.321707 0.822247 0.168986
C202  C     C_3   0.379066 0.432067 0.812500 -0.922510
H143  H     H_    0.333291 0.464439 0.822269 0.284583
H144  H     H_    0.421952 0.426038 0.830402 0.230018
H145  H     H_    0.400824 0.461813 0.792125 0.259417
O82   O     O_3   0.712502 0.627738 0.215578 -0.596635
C203  C     C_3   0.648784 0.636252 0.197792 0.131749
H146  H     H_    0.661708 0.664924 0.175803 0.174173
H147  H     H_    0.604938 0.667100 0.210145 0.181971
C204  C     C_3   0.620749 0.559798 0.190055 -0.929879
H148  H     H_    0.594299 0.535927 0.210816 0.244307
H149  H     H_    0.581039 0.561619 0.170710 0.232204
H150  H     H_    0.666806 0.523610 0.183417 0.290533
O83   O     O_3   0.619427 0.304354 0.769946 -0.600699
C205  C     C_3   0.623099 0.374158 0.784000 0.132628
H151  H     H_    0.649224 0.415962 0.768698 0.167396
H152  H     H_    0.653769 0.371911 0.806052 0.183391
C206  C     C_3   0.545564 0.397375 0.791302 -0.918701
H153  H     H_    0.513751 0.348477 0.798796 0.295863
H154  H     H_    0.544657 0.437309 0.810685 0.230849
H155  H     H_    0.519567 0.421832 0.770477 0.249523
O84   O     O_3   0.379063 0.688904 0.229031 -0.593453
C207  C     C_3   0.369593 0.614665 0.219747 0.150891
H156  H     H_    0.341192 0.611482 0.197194 0.155943
H157  H     H_    0.337567 0.581354 0.236590 0.175962
C208  C     C_3   0.444131 0.579460 0.216265 -0.907989
H158  H     H_    0.475141 0.583829 0.238271 0.265324
H159  H     H_    0.438320 0.520387 0.210196 0.222669
H160  H     H_    0.474545 0.608194 0.197639 0.269759
O85   O     O_3   0.228085 0.302542 0.309802 -0.595462
C209  C     C_3   0.274951 0.267852 0.331424 0.076581
H161  H     H_    0.333377 0.277389 0.325973 0.168841
H162  H     H_    0.266394 0.207353 0.332159 0.161464
C210  C     C_3   0.260082 0.298765 0.363544 -0.792482
H163  H     H_    0.202266 0.289040 0.370052 0.280993
H164  H     H_    0.295843 0.271152 0.380770 0.195018
H165  H     H_    0.271266 0.359036 0.363867 0.264768
O86   O     O_3   0.779967 0.700258 0.691505 -0.619610
C211  C     C_3   0.737638 0.735830 0.668633 0.128912
H166  H     H_    0.746908 0.796345 0.668519 0.197676
H167  H     H_    0.678441 0.725126 0.672071 0.176770
C212  C     C_3   0.759470 0.706410 0.636986 -0.869004
H168  H     H_    0.749738 0.645931 0.635917 0.263402
H169  H     H_    0.726624 0.733846 0.618702 0.224270
H170  H     H_    0.818257 0.717727 0.632672 0.250787
O87   O     O_3   0.723777 0.203409 0.310053 -0.596026
C213  C     C_3   0.766672 0.241978 0.331982 0.096811
H171  H     H_    0.745306 0.298280 0.335621 0.177557
H172  H     H_    0.824864 0.246859 0.324877 0.164913
C214  C     C_3   0.763499 0.201638 0.362845 -0.825927
H173  H     H_    0.787434 0.145768 0.360405 0.248482
H174  H     H_    0.795095 0.232742 0.380513 0.202763
H175  H     H_    0.705973 0.196471 0.370727 0.285955
O88   O     O_3   0.281150 0.793270 0.690354 -0.624426
C215  C     C_3   0.234249 0.760044 0.668384 0.167884
H176  H     H_    0.187415 0.797041 0.664100 0.150025
H177  H     H_    0.212659 0.705148 0.675615 0.196528
C216  C     C_3   0.274926 0.749724 0.637965 -0.878530
H178  H     H_    0.323518 0.714316 0.641390 0.258274
H179  H     H_    0.238298 0.723611 0.620624 0.236298
H180  H     H_    0.293569 0.803627 0.628911 0.239783
O89   O     O_3   0.774382 0.700321 0.309504 -0.599496
C217  C     C_3   0.725208 0.731415 0.331086 0.088765
H181  H     H_    0.669432 0.709395 0.327711 0.185113
H182  H     H_    0.722730 0.792586 0.329331 0.155945
C218  C     C_3   0.749317 0.711133 0.363679 -0.809877
H183  H     H_    0.805283 0.732114 0.367999 0.264242
H184  H     H_    0.711572 0.736055 0.380873 0.197519
H185  H     H_    0.748915 0.650210 0.366554 0.275568
O90   O     O_3   0.221565 0.298962 0.691633 -0.616524
C219  C     C_3   0.266592 0.265116 0.669237 0.146574
H186  H     H_    0.266302 0.203972 0.671220 0.196005
H187  H     H_    0.323755 0.284905 0.671360 0.174795
C220  C     C_3   0.238895 0.285383 0.637142 -0.877125
H188  H     H_    0.241415 0.346149 0.633874 0.263350
H189  H     H_    0.273217 0.258408 0.619223 0.224074
H190  H     H_    0.181487 0.266672 0.634310 0.248046
O91   O     O_3   0.273911 0.799542 0.310013 -0.594121
C221  C     C_3   0.232612 0.760465 0.332316 0.108290
H191  H     H_    0.257747 0.706314 0.337135 0.181846
H192  H     H_    0.175180 0.750956 0.324875 0.157113
C222  C     C_3   0.232060 0.803775 0.362490 -0.836485
H193  H     H_    0.205238 0.857933 0.358969 0.247552
H194  H     H_    0.201434 0.772542 0.380443 0.203644
H195  H     H_    0.288830 0.812978 0.370693 0.289103
O92   O     O_3   0.724676 0.198615 0.691527 -0.616197
C223  C     C_3   0.769231 0.232785 0.668979 0.157983
H196  H     H_    0.816391 0.196586 0.664181 0.149306
H197  H     H_    0.790794 0.287925 0.675831 0.194089
C224  C     C_3   0.725909 0.242388 0.639165 -0.887001
H198  H     H_    0.674400 0.272501 0.643702 0.262344
H199  H     H_    0.758612 0.273730 0.621936 0.228180
H200  H     H_    0.711943 0.187989 0.629263 0.240650
O93   O     O_3   0.725437 0.801423 0.809690 -0.598631
C225  C     C_3   0.771097 0.766606 0.831740 0.081889
H201  H     H_    0.828941 0.783299 0.828893 0.168539
H202  H     H_    0.769101 0.705548 0.830107 0.162178
C226  C     C_3   0.746628 0.788705 0.864090 -0.808124
H203  H     H_    0.689005 0.771799 0.867861 0.271893
H204  H     H_    0.781551 0.761227 0.881660 0.196409
H205  H     H_    0.751189 0.849462 0.866942 0.269666
O94   O     O_3   0.278419 0.200541 0.191357 -0.617336
C227  C     C_3   0.234710 0.235508 0.168775 0.142176
H206  H     H_    0.239659 0.296491 0.169698 0.199440
H207  H     H_    0.176293 0.220477 0.171634 0.171667
C228  C     C_3   0.259495 0.210773 0.136811 -0.888166
H208  H     H_    0.254588 0.149860 0.134735 0.262158
H209  H     H_    0.225051 0.237154 0.118786 0.224690
H210  H     H_    0.317267 0.227173 0.133000 0.249332
O95   O     O_3   0.222461 0.703494 0.809851 -0.595418
C229  C     C_3   0.264431 0.742277 0.832021 0.100717
H211  H     H_    0.241838 0.797935 0.835951 0.177151
H212  H     H_    0.322471 0.748788 0.824963 0.158482
C230  C     C_3   0.261757 0.701110 0.862704 -0.827249
H213  H     H_    0.286736 0.645764 0.860098 0.250756
H214  H     H_    0.292528 0.732441 0.880561 0.200643
H215  H     H_    0.204264 0.694627 0.870461 0.286597
O96   O     O_3   0.777514 0.294882 0.190296 -0.620137
C231  C     C_3   0.732592 0.258846 0.168373 0.162602
H216  H     H_    0.680638 0.289122 0.165932 0.156636
H217  H     H_    0.719510 0.200690 0.174523 0.195903
C232  C     C_3   0.770728 0.258306 0.137082 -0.897852
H218  H     H_    0.823759 0.229071 0.138821 0.260049
H219  H     H_    0.735858 0.229912 0.119723 0.230951
H220  H     H_    0.781038 0.315494 0.129191 0.248498
O97   O     O_3   0.274239 0.198886 0.810136 -0.601694
C233  C     C_3   0.227318 0.231700 0.832205 0.087140
H221  H     H_    0.171037 0.210220 0.829984 0.176890
H222  H     H_    0.224807 0.292729 0.829922 0.158432
C234  C     C_3   0.254462 0.213048 0.864556 -0.813985
H223  H     H_    0.311125 0.233547 0.867688 0.265703
H224  H     H_    0.218699 0.239367 0.882140 0.198664
H225  H     H_    0.253667 0.152317 0.868063 0.273671
O98   O     O_3   0.722996 0.797959 0.190462 -0.618120
C235  C     C_3   0.772689 0.768303 0.168744 0.141760
H226  H     H_    0.781658 0.708046 0.172026 0.176420
H227  H     H_    0.826193 0.796668 0.170373 0.179487
C236  C     C_3   0.743096 0.780603 0.136231 -0.889223
H228  H     H_    0.736278 0.840599 0.131817 0.260182
H229  H     H_    0.781675 0.757561 0.118913 0.230416
H230  H     H_    0.689423 0.752816 0.133583 0.242345
O99   O     O_3   0.774091 0.301278 0.809839 -0.594379
C237  C     C_3   0.733814 0.262320 0.832491 0.112871
H231  H     H_    0.760121 0.208993 0.837637 0.181445
H232  H     H_    0.676519 0.251334 0.825225 0.154543
C238  C     C_3   0.732922 0.306657 0.862385 -0.841511
H233  H     H_    0.703280 0.359230 0.858805 0.247164
H234  H     H_    0.704941 0.274599 0.880845 0.202805
H235  H     H_    0.789629 0.318936 0.869941 0.291492
O100  O     O_3   0.225889 0.702202 0.190690 -0.619782
C239  C     C_3   0.271502 0.738188 0.168913 0.170655
H236  H     H_    0.320289 0.703914 0.164531 0.143338
H237  H     H_    0.290832 0.793733 0.176290 0.195338
C240  C     C_3   0.230564 0.747389 0.138510 -0.889385
H238  H     H_    0.180240 0.780162 0.142056 0.258199
H239  H     H_    0.265945 0.775768 0.121312 0.231679
H240  H     H_    0.214570 0.692924 0.129222 0.244411
O101  O     O_3   0.550352 0.122851 0.128606 -0.610605
C241  C     C_3   0.501245 0.181788 0.133584 0.198881
H241  H     H_    0.498514 0.192508 0.158900 0.184572
H242  H     H_    0.444044 0.170140 0.126269 0.091399
C242  C     C_3   0.531241 0.251716 0.118131 -0.344039
H243  H     H_    0.582903 0.267835 0.129717 0.209178
H244  H     H_    0.544364 0.241866 0.093442 0.275443
C243  C     C_3   0.476893 0.314944 0.120293 -1.026417
H245  H     H_    0.428202 0.303685 0.105733 0.268105
H246  H     H_    0.502892 0.367020 0.112327 0.280959
H247  H     H_    0.459284 0.321364 0.144627 0.278595
O102  O     O_3   0.540300 0.871173 0.869718 -0.579578
C244  C     C_3   0.483589 0.818141 0.867379 0.190062
H248  H     H_    0.451233 0.828010 0.846029 0.153439
H249  H     H_    0.444746 0.819334 0.887074 0.103349
C245  C     C_3   0.517693 0.741380 0.865383 -0.308510
H250  H     H_    0.547523 0.736414 0.843099 0.218377
H251  H     H_    0.557522 0.733957 0.884533 0.242795
C246  C     C_3   0.460005 0.680695 0.867318 -1.043589
H252  H     H_    0.428786 0.684201 0.889278 0.270473
H253  H     H_    0.486727 0.625845 0.866155 0.272474
H254  H     H_    0.421218 0.685990 0.847841 0.286095
O103  O     O_3   0.871338 0.544503 0.130378 -0.610161
C247  C     C_3   0.817122 0.491577 0.137857 0.215029
H255  H     H_    0.808748 0.492406 0.163342 0.191625
H256  H     H_    0.832763 0.433849 0.132375 0.094294
C248  C     C_3   0.744173 0.513928 0.123090 -0.352436
H257  H     H_    0.722956 0.563506 0.135253 0.221123
H258  H     H_    0.751758 0.529722 0.098508 0.274711
C249  C     C_3   0.687546 0.452019 0.124842 -1.012221
H259  H     H_    0.700130 0.408351 0.107663 0.270991
H260  H     H_    0.632544 0.474403 0.119548 0.277232
H261  H     H_    0.686548 0.427019 0.148276 0.271557
O104  O     O_3   0.130760 0.522206 0.870649 -0.585837
C250  C     C_3   0.175784 0.458867 0.868682 0.196353
H262  H     H_    0.183025 0.444710 0.843824 0.173265
H263  H     H_    0.152275 0.408513 0.879672 0.074545
C251  C     C_3   0.251210 0.477151 0.882105 -0.313215
H264  H     H_    0.280623 0.514144 0.865856 0.199959
H265  H     H_    0.245772 0.507631 0.904218 0.272749
C252  C     C_3   0.296662 0.407965 0.887726 -1.015838
H266  H     H_    0.272162 0.373850 0.906385 0.272231
H267  H     H_    0.352862 0.423836 0.894737 0.275033
H268  H     H_    0.299672 0.374512 0.866378 0.274720
O105  O     O_3   0.452541 0.873301 0.129996 -0.609176
C253  C     C_3   0.502425 0.815565 0.136182 0.196156
H269  H     H_    0.506559 0.808914 0.161699 0.192124
H270  H     H_    0.559088 0.826043 0.127844 0.090589
C254  C     C_3   0.472068 0.743188 0.123083 -0.335902
H271  H     H_    0.418013 0.732043 0.133640 0.218480
H272  H     H_    0.463976 0.747242 0.097706 0.264315
C255  C     C_3   0.522538 0.678655 0.130039 -1.025289
H273  H     H_    0.575704 0.686019 0.118057 0.264354
H274  H     H_    0.497090 0.626410 0.121968 0.277754
H275  H     H_    0.531711 0.675079 0.155347 0.265093
O106  O     O_3   0.460711 0.127212 0.870819 -0.580739
C256  C     C_3   0.516404 0.181180 0.868031 0.188572
H276  H     H_    0.548117 0.171737 0.846464 0.154648
H277  H     H_    0.555877 0.180835 0.887499 0.107278
C257  C     C_3   0.480807 0.257289 0.866220 -0.309652
H278  H     H_    0.447792 0.260695 0.844705 0.221595
H279  H     H_    0.443739 0.265049 0.886341 0.242807
C258  C     C_3   0.537642 0.318916 0.866085 -1.045234
H280  H     H_    0.571832 0.317057 0.887250 0.270258
H281  H     H_    0.510058 0.373311 0.865143 0.272344
H282  H     H_    0.573576 0.313184 0.845652 0.285044
O107  O     O_3   0.125251 0.467148 0.126872 -0.611349
C259  C     C_3   0.180146 0.519416 0.134087 0.214447
H283  H     H_    0.193541 0.513415 0.159062 0.189014
H284  H     H_    0.162758 0.577672 0.131321 0.093953
C260  C     C_3   0.249707 0.501502 0.115719 -0.350374
H285  H     H_    0.269174 0.446441 0.122832 0.221351
H286  H     H_    0.238769 0.497009 0.090666 0.275053
C261  C     C_3   0.309934 0.558697 0.120556 -0.998403
H287  H     H_    0.297244 0.609803 0.107500 0.271177
H288  H     H_    0.362533 0.536629 0.111766 0.276057
H289  H     H_    0.316271 0.572208 0.145433 0.265713
O108  O     O_3   0.867568 0.482682 0.870153 -0.589085
C262  C     C_3   0.820792 0.544444 0.866931 0.203125
H290  H     H_    0.812816 0.555098 0.841806 0.174077
H291  H     H_    0.843317 0.596767 0.876510 0.074597
C263  C     C_3   0.745949 0.526027 0.881024 -0.308395
H292  H     H_    0.716707 0.487471 0.865414 0.198247
H293  H     H_    0.752234 0.497202 0.903492 0.275399
C264  C     C_3   0.699348 0.594741 0.885968 -1.015863
H294  H     H_    0.723717 0.630957 0.903902 0.273938
H295  H     H_    0.643721 0.578363 0.893597 0.274242
H296  H     H_    0.694897 0.626385 0.864217 0.275150
O109  O     O_3   0.059825 0.622220 0.631017 -0.597003
C265  C     C_3   0.006269 0.678619 0.632475 0.175129
H297  H     H_    0.983199 0.680968 0.656230 0.185100
H298  H     H_    0.958732 0.670151 0.616697 0.083842
C266  C     C_3   0.042592 0.753043 0.626027 -0.343044
H299  H     H_    0.075773 0.768482 0.646446 0.214208
H300  H     H_    0.079544 0.749052 0.605730 0.254440
C267  C     C_3   0.986189 0.813117 0.620213 -1.015116
H301  H     H_    0.957079 0.803064 0.598058 0.268331
H302  H     H_    0.013554 0.867789 0.619014 0.276192
H303  H     H_    0.946010 0.813370 0.639355 0.274351
O110  O     O_3   0.055182 0.375952 0.369003 -0.573504
C268  C     C_3   0.999017 0.322224 0.370723 0.170593
H304  H     H_    0.952884 0.337492 0.355250 0.137516
H305  H     H_    0.976858 0.316469 0.394574 0.114419
C269  C     C_3   0.029074 0.247482 0.360534 -0.307069
H306  H     H_    0.038758 0.248360 0.335136 0.226328
H307  H     H_    0.082027 0.236883 0.372185 0.227306
C270  C     C_3   0.976349 0.185056 0.368722 -1.035375
H308  H     H_    0.963912 0.185118 0.393905 0.271549
H309  H     H_    0.001414 0.131193 0.362928 0.270104
H310  H     H_    0.924796 0.191173 0.355529 0.281994
O111  O     O_3   0.371413 0.034061 0.628457 -0.610507
C271  C     C_3   0.317769 0.980312 0.635496 0.218415
H311  H     H_    0.305240 0.984530 0.660622 0.188460
H312  H     H_    0.336140 0.922604 0.631960 0.093378
C272  C     C_3   0.247131 0.997842 0.617827 -0.354196
H313  H     H_    0.227358 0.052649 0.625189 0.224315
H314  H     H_    0.256651 0.002581 0.592693 0.276058
C273  C     C_3   0.187892 0.939901 0.623168 -1.014402
H315  H     H_    0.202656 0.887480 0.611502 0.273296
H316  H     H_    0.135463 0.959622 0.613297 0.276723
H317  H     H_    0.180149 0.929641 0.648232 0.269772
O112  O     O_3   0.631286 0.020598 0.370414 -0.585687
C274  C     C_3   0.677148 0.957955 0.367965 0.198044
H318  H     H_    0.684719 0.945155 0.342994 0.173336
H319  H     H_    0.654129 0.906745 0.378422 0.074924
C275  C     C_3   0.752322 0.976446 0.381636 -0.310084
H320  H     H_    0.781582 0.014150 0.365633 0.198057
H321  H     H_    0.746543 0.006314 0.403878 0.273765
C276  C     C_3   0.798319 0.907480 0.386998 -1.017385
H322  H     H_    0.774791 0.873277 0.405837 0.272763
H323  H     H_    0.854727 0.923615 0.393592 0.274809
H324  H     H_    0.800551 0.873853 0.365700 0.273766
O113  O     O_3   0.941192 0.382531 0.628516 -0.604840
C277  C     C_3   0.985235 0.319634 0.633891 0.188417
H325  H     H_    0.991491 0.312602 0.659304 0.194623
H326  H     H_    0.041515 0.323105 0.624071 0.082223
C278  C     C_3   0.946044 0.251369 0.621425 -0.339311
H327  H     H_    0.889651 0.250512 0.630351 0.223144
H328  H     H_    0.942202 0.253442 0.595948 0.253847
C279  C     C_3   0.984750 0.180790 0.630978 -1.026816
H329  H     H_    0.041698 0.180898 0.622115 0.272298
H330  H     H_    0.955622 0.132338 0.621250 0.280449
H331  H     H_    0.985014 0.176272 0.656608 0.278804
O114  O     O_3   0.956590 0.624986 0.371207 -0.574960
C280  C     C_3   0.011389 0.680211 0.369588 0.177872
H332  H     H_    0.050682 0.667402 0.350706 0.143750
H333  H     H_    0.043134 0.685049 0.391432 0.111561
C281  C     C_3   0.975813 0.754749 0.362880 -0.308437
H334  H     H_    0.954412 0.754966 0.338805 0.225041
H335  H     H_    0.929320 0.763514 0.378955 0.231945
C282  C     C_3   0.030178 0.817963 0.366978 -1.041056
H336  H     H_    0.053792 0.817562 0.390664 0.271791
H337  H     H_    0.002298 0.871539 0.363507 0.270781
H338  H     H_    0.074880 0.812925 0.349849 0.282706
O115  O     O_3   0.626543 0.961958 0.628218 -0.613052
C283  C     C_3   0.681447 0.014322 0.635170 0.218797
H339  H     H_    0.694419 0.009428 0.660231 0.192699
H340  H     H_    0.664291 0.072454 0.631866 0.093180
C284  C     C_3   0.751137 0.995197 0.617201 -0.344551
H341  H     H_    0.769889 0.940262 0.624797 0.219049
H342  H     H_    0.740831 0.989792 0.592143 0.275215
C285  C     C_3   0.811446 0.052250 0.621866 -1.006316
H343  H     H_    0.798484 0.103558 0.608981 0.271949
H344  H     H_    0.863734 0.030025 0.612832 0.274686
H345  H     H_    0.818265 0.065537 0.646727 0.267304
O116  O     O_3   0.367943 0.981399 0.370255 -0.585609
C286  C     C_3   0.322363 0.044310 0.367898 0.196831
H346  H     H_    0.314994 0.057436 0.342946 0.174079
H347  H     H_    0.345577 0.095266 0.378472 0.073648
C287  C     C_3   0.247023 0.026022 0.381514 -0.309713
H348  H     H_    0.217777 0.988352 0.365526 0.199956
H349  H     H_    0.252641 0.996117 0.403754 0.273562
C288  C     C_3   0.200996 0.095013 0.386871 -1.015833
H350  H     H_    0.225693 0.130401 0.405030 0.271523
H351  H     H_    0.145264 0.078835 0.394438 0.275109
H352  H     H_    0.196635 0.127435 0.365302 0.272778
O117  O     O_3   0.514254 0.128245 0.064852 -0.591662
C289  C     C_3   0.442744 0.153926 0.058162 0.079759
H353  H     H_    0.423029 0.190087 0.076964 0.144171
H354  H     H_    0.401533 0.109086 0.055127 0.144164
C290  C     C_3   0.444131 0.199493 0.028699 -0.810183
H355  H     H_    0.487168 0.242643 0.030118 0.257728
H356  H     H_    0.454949 0.162805 0.008755 0.272622
H357  H     H_    0.390365 0.226463 0.025185 0.210742
O118  O     O_3   0.535571 0.867752 0.933350 -0.567250
C291  C     C_3   0.474703 0.836817 0.949049 0.121434
H358  H     H_    0.422371 0.843556 0.936237 0.105524
H359  H     H_    0.467700 0.862452 0.972094 0.165404
C292  C     C_3   0.488042 0.754917 0.954399 -0.848587
H360  H     H_    0.540670 0.746461 0.966603 0.266863
H361  H     H_    0.443137 0.731205 0.968571 0.215496
H362  H     H_    0.490486 0.725306 0.932078 0.256965
O119  O     O_3   0.863087 0.504169 0.067041 -0.588799
C293  C     C_3   0.841386 0.429494 0.063005 0.103269
H363  H     H_    0.818745 0.406537 0.084596 0.129734
H364  H     H_    0.887062 0.392629 0.055963 0.144909
C294  C     C_3   0.781733 0.424993 0.038565 -0.802413
H365  H     H_    0.736164 0.462729 0.044585 0.252519
H366  H     H_    0.804009 0.440256 0.015561 0.270824
H367  H     H_    0.760322 0.367685 0.037279 0.207865
O120  O     O_3   0.129874 0.506205 0.934956 -0.578990
C295  C     C_3   0.143661 0.435952 0.948261 0.102367
H368  H     H_    0.155545 0.394425 0.930160 0.123353
H369  H     H_    0.097148 0.414650 0.962148 0.144452
C296  C     C_3   0.209374 0.441077 0.969696 -0.798796
H370  H     H_    0.196935 0.478370 0.989354 0.271072
H371  H     H_    0.222507 0.385532 0.979015 0.208105
H372  H     H_    0.257644 0.462514 0.956987 0.251877
O121  O     O_3   0.488042 0.863560 0.066660 -0.588781
C297  C     C_3   0.559137 0.836597 0.060047 0.077803
H373  H     H_    0.577550 0.799158 0.078706 0.145725
H374  H     H_    0.601392 0.880632 0.057350 0.142026
C298  C     C_3   0.557301 0.792097 0.030320 -0.813270
H375  H     H_    0.513682 0.749494 0.031443 0.258126
H376  H     H_    0.547000 0.829679 0.010629 0.269093
H377  H     H_    0.610730 0.764555 0.026651 0.211857
O122  O     O_3   0.471908 0.129274 0.934439 -0.568747
C299  C     C_3   0.534715 0.158254 0.949385 0.113712
H378  H     H_    0.586047 0.149495 0.936004 0.106467
H379  H     H_    0.542003 0.132629 0.972446 0.169161
C300  C     C_3   0.524749 0.240721 0.954519 -0.848823
H380  H     H_    0.472868 0.251582 0.966965 0.267514
H381  H     H_    0.570954 0.262844 0.968362 0.216249
H382  H     H_    0.522962 0.269948 0.932079 0.254733
O123  O     O_3   0.126248 0.520864 0.064869 -0.593201
C301  C     C_3   0.144355 0.596988 0.062622 0.097198
H383  H     H_    0.167222 0.617738 0.084593 0.127420
H384  H     H_    0.096569 0.632451 0.056932 0.146984
C302  C     C_3   0.202320 0.608058 0.037758 -0.802890
H385  H     H_    0.179874 0.594184 0.014634 0.273464
H386  H     H_    0.220225 0.666653 0.037519 0.210146
H387  H     H_    0.250404 0.572591 0.042518 0.249208
O124  O     O_3   0.865469 0.511635 0.933781 -0.581355
C303  C     C_3   0.852899 0.584104 0.945091 0.104702
H388  H     H_    0.841916 0.622912 0.925860 0.121957
H389  H     H_    0.899698 0.606875 0.958363 0.143663
C304  C     C_3   0.787048 0.583578 0.966571 -0.805266
H390  H     H_    0.799753 0.551453 0.987740 0.267060
H391  H     H_    0.773315 0.640957 0.973449 0.208946
H392  H     H_    0.739102 0.558592 0.954835 0.256694
O125  O     O_3   0.075383 0.618426 0.567420 -0.561337
C305  C     C_3   0.025457 0.665030 0.551824 0.120221
H393  H     H_    0.988353 0.692840 0.568267 0.132214
H394  H     H_    0.991145 0.635034 0.534822 0.133307
C306  C     C_3   0.067851 0.724149 0.534377 -0.831549
H395  H     H_    0.104293 0.754745 0.550435 0.256415
H396  H     H_    0.101419 0.698345 0.515897 0.257049
H397  H     H_    0.029214 0.763790 0.523684 0.205228
O126  O     O_3   0.084534 0.385005 0.431071 -0.562978
C307  C     C_3   0.042929 0.341209 0.451753 0.131950
H398  H     H_    0.983182 0.341548 0.446744 0.107217
H399  H     H_    0.051658 0.360945 0.475787 0.170065
C308  C     C_3   0.070127 0.261936 0.450403 -0.852893
H400  H     H_    0.127735 0.259200 0.458347 0.260365
H401  H     H_    0.035992 0.226280 0.465503 0.208466
H402  H     H_    0.066943 0.240562 0.426436 0.264481
O127  O     O_3   0.368307 0.984645 0.565800 -0.594298
C309  C     C_3   0.351895 0.908293 0.562804 0.096356
H403  H     H_    0.330189 0.885616 0.584673 0.127153
H404  H     H_    0.400291 0.874356 0.556433 0.148279
C310  C     C_3   0.293408 0.897525 0.538158 -0.800361
H405  H     H_    0.244302 0.930730 0.543841 0.247703
H406  H     H_    0.314456 0.914516 0.515147 0.273371
H407  H     H_    0.277524 0.838395 0.537041 0.210588
O128  O     O_3   0.631682 0.000043 0.434473 -0.579347
C311  C     C_3   0.646073 0.929179 0.447093 0.102838
H408  H     H_    0.658471 0.888833 0.428602 0.124024
H409  H     H_    0.599732 0.906438 0.460667 0.144488
C312  C     C_3   0.711533 0.933809 0.468686 -0.800744
H410  H     H_    0.698360 0.969538 0.488770 0.270483
H411  H     H_    0.725433 0.877851 0.477345 0.208456
H412  H     H_    0.759567 0.956879 0.456321 0.252754
O129  O     O_3   0.960979 0.376150 0.565016 -0.565955
C313  C     C_3   0.019415 0.333333 0.553183 0.097931
H413  H     H_    0.048384 0.304245 0.572143 0.128393
H414  H     H_    0.060536 0.366572 0.540386 0.140448
C314  C     C_3   0.989172 0.275952 0.530860 -0.837497
H415  H     H_    0.949293 0.239424 0.542699 0.252285
H416  H     H_    0.961319 0.303743 0.511236 0.257505
H417  H     H_    0.034511 0.241581 0.521806 0.208358
O130  O     O_3   0.952118 0.619900 0.434630 -0.561860
C315  C     C_3   0.002305 0.661235 0.452637 0.131301
H418  H     H_    0.059164 0.660088 0.443375 0.108232
H419  H     H_    0.002789 0.640142 0.476731 0.166611
C316  C     C_3   0.977086 0.741103 0.454242 -0.851934
H420  H     H_    0.923391 0.744387 0.466129 0.260606
H421  H     H_    0.017518 0.774605 0.467260 0.207285
H422  H     H_    0.971684 0.764446 0.430677 0.263570
O131  O     O_3   0.630106 0.012820 0.565584 -0.595310
C317  C     C_3   0.647311 0.089062 0.562953 0.095712
H423  H     H_    0.669391 0.110833 0.584893 0.127199
H424  H     H_    0.599235 0.123695 0.556818 0.147968
C318  C     C_3   0.705761 0.099938 0.538286 -0.799733
H425  H     H_    0.754270 0.065503 0.543585 0.248584
H426  H     H_    0.684162 0.084566 0.515181 0.273131
H427  H     H_    0.722730 0.158800 0.537641 0.211107
O132  O     O_3   0.367144 0.001203 0.434322 -0.579775
C319  C     C_3   0.352734 0.071862 0.447128 0.103644
H428  H     H_    0.340651 0.112579 0.428735 0.123875
H429  H     H_    0.398944 0.094242 0.460859 0.144500
C320  C     C_3   0.286989 0.066959 0.468587 -0.801799
H430  H     H_    0.299613 0.030304 0.488451 0.270452
H431  H     H_    0.273452 0.122696 0.477588 0.207261
H432  H     H_    0.238898 0.044816 0.455993 0.252418

loop_
_geom_bond_atom_site_label_1
_geom_bond_atom_site_label_2
_ccdc_geom_bond_type
C132  C144  A    
O33   Zn8   S    
C280  C281  S    
C40   O48   A    
C256  H276  S    
O1    Zn5   S    
C64   C103  S    
C170  H64   S    
C194  H123  S    
C11   C107  A    
C21   C138  S    
C274  H318  S    
C219  C220  S    
N4    N7    A    
C52   C75   S    
C53   C69   S    
C42   C58   S    
C285  H345  S    
C308  H400  S    
C274  C275  S    
C106  O102  S    
O98   C235  S    
C222  H195  S    
C69   O65   S    
C260  H286  S    
C227  C228  S    
O22   Zn11  S    
O69   C177  S    
C56   C79   S    
O18   Zn3   S    
C43   O71   S    
O43   Zn3   S    
C238  H234  S    
C244  H248  S    
O78   C195  S    
C293  H363  S    
C203  H147  S    
C196  H129  S    
O1    Zn12  S    
C39   O47   A    
O88   C215  S    
C288  H352  S    
O49   Zn9   S    
C243  H245  S    
C177  C178  S    
C33   O29   A    
C234  H223  S    
C263  H292  S    
C314  H417  S    
C151  H17   S    
C199  C200  S    
C192  H119  S    
C227  H206  S    
C186  H103  S    
C159  C160  S    
C202  H145  S    
C228  H209  S    
C289  C290  S    
C55   O83   S    
C270  H310  S    
C199  H137  S    
C215  H177  S    
C233  H221  S    
C149  H11   S    
C167  C168  S    
C170  H63   S    
C184  H98   S    
C262  C263  S    
C45   C61   S    
C259  H284  S    
C72   C88   S    
C296  H371  S    
C117  C133  A    
C199  H136  S    
C114  O110  S    
O55   C149  S    
C191  H117  S    
C82   C98   S    
O38   Zn6   S    
C277  H326  S    
C108  C124  A    
C87   C103  S    
C176  H79   S    
C118  O114  S    
C172  H68   S    
C66   C89   S    
C295  H369  S    
C178  H85   S    
C165  H52   S    
C214  H174  S    
C128  O124  S    
C84   C100  S    
C257  C258  S    
C282  H336  S    
C70   C93   S    
C152  H19   S    
C5    C12   S    
C252  H268  S    
C6    C11   S    
C12   C108  A    
C173  H71   S    
C267  H301  S    
C230  H215  S    
C317  H424  S    
C67   O63   S    
C239  C240  S    
C36   C86   S    
O94   C227  S    
O25   Zn16  S    
C39   O35   A    
C173  C174  S    
O5    Zn16  S    
C4    O8    A    
C47   C63   S    
C38   C88   S    
C17   C142  S    
C158  H35   S    
C277  C278  S    
C37   O33   A    
O80   C199  S    
C231  H216  S    
C207  H157  S    
O29   Zn4   S    
C66   C82   S    
C212  H170  S    
C178  H84   S    
O12   Zn13  S    
C8    O20   A    
C13   C117  A    
O111  C271  S    
C54   C70   S    
C269  C270  S    
C232  H220  S    
O51   Zn11  S    
C233  C234  S    
C48   C87   S    
C299  H379  S    
O42   Zn2   S    
C174  H75   S    
C145  H2    S    
C33   C83   S    
C287  H349  S    
C217  H181  S    
O71   C181  S    
C36   O52   A    
C247  C248  S    
C97   O93   S    
C26   O22   A    
C176  H80   S    
C46   C62   S    
C276  H322  S    
C256  C257  S    
C280  H333  S    
C200  H139  S    
O73   C185  S    
O40   Zn8   S    
C194  H125  S    
C155  H27   S    
C50   C73   S    
C248  H257  S    
C123  O119  S    
C308  H402  S    
C131  C143  A    
C195  H127  S    
C253  H269  S    
C242  H243  S    
C185  H101  S    
C250  H263  S    
C297  H373  S    
C265  H298  S    
C48   C96   S    
C291  C292  S    
C303  H388  S    
C219  H186  S    
O2    Zn15  S    
C165  C166  S    
C63   C104  S    
C284  H342  S    
C237  C238  S    
C307  H398  S    
C221  H191  S    
O34   Zn7   S    
O27   Zn10  S    
C23   N4    A    
C207  C208  S    
C243  H247  S    
C21   N2    A    
C74   C90   S    
C53   C78   S    
C158  H33   S    
C61   O57   S    
C276  H323  S    
C18   N13   A    
C254  H271  S    
C159  H37   S    
C55   C80   S    
C286  H347  S    
C171  C172  S    
C223  H196  S    
C78   C94   S    
C236  H228  S    
C41   C82   S    
C67   C92   S    
C249  H259  S    
C93   O89   S    
C116  O112  S    
C175  H76   S    
C313  H414  S    
C198  H134  S    
C251  H264  S    
C49   C97   S    
C262  H290  S    
C271  H311  S    
C136  C144  A    
C168  H58   S    
C31   O27   A    
O65   C169  S    
O57   C153  S    
O16   Zn1   S    
C212  H169  S    
C190  H113  S    
O75   C189  S    
C55   C71   S    
C316  H421  S    
C297  C298  S    
O3    Zn7   S    
C291  H359  S    
C66   O62   S    
C49   O77   S    
O68   C175  S    
O50   Zn10  S    
O59   C157  S    
C258  H280  S    
C303  C304  S    
O76   C191  S    
C107  O103  S    
O8    Zn9   S    
C44   C83   S    
C45   C93   S    
C224  H200  S    
C217  C218  S    
C240  H238  S    
C298  H375  S    
C3    O7    A    
O95   C229  S    
O114  C280  S    
C153  C154  S    
C108  O104  S    
C318  H426  S    
C22   C137  S    
C150  H13   S    
O92   C223  S    
C241  C242  S    
C27   O43   A    
C19   N16   A    
O106  C256  S    
C44   C60   S    
C253  H270  S    
C284  C285  S    
C25   O41   A    
C272  H314  S    
C32   C74   S    
C225  H201  S    
C235  H227  S    
C298  H376  S    
C9    C105  A    
O112  C274  S    
C123  C139  A    
O113  C277  S    
C245  H250  S    
C209  C210  S    
C148  H8    S    
C121  C137  A    
N9    N14   A    
C226  H203  S    
C181  H91   S    
O35   Zn2   S    
C167  H57   S    
C34   O50   A    
C90   O86   S    
C311  H408  S    
O26   Zn15  S    
C61   C77   S    
O6    Zn15  S    
C266  H300  S    
C221  C222  S    
C46   C94   S    
C132  O128  S    
C271  C272  S    
C184  H100  S    
C242  C243  S    
C201  H141  S    
C124  O120  S    
O85   C209  S    
O30   Zn3   S    
N1    N6    A    
C191  C192  S    
C43   C59   S    
C54   C77   S    
O28   Zn9   S    
C296  H372  S    
C135  C143  A    
O117  C289  S    
C292  H361  S    
C59   C100  S    
C294  H366  S    
C319  C320  S    
O20   Zn5   S    
O97   C233  S    
C42   C81   S    
C34   C84   S    
O32   Zn5   S    
C267  H303  S    
O83   C205  S    
O4    Zn9   S    
O102  C244  S    
C236  H229  S    
O53   C145  S    
C41   O69   S    
C208  H158  S    
C27   O23   A    
C26   C76   S    
C246  H253  S    
C186  H105  S    
C163  H47   S    
C50   C98   S    
C105  C121  A    
O54   C147  S    
O15   Zn2   S    
C40   C82   S    
C23   C140  S    
C34   O30   A    
O39   Zn7   S    
C51   C76   S    
C225  C226  S    
C254  C255  S    
C53   C101  S    
C171  H66   S    
C282  H338  S    
C285  H344  S    
C151  C152  S    
C56   C72   S    
C290  H355  S    
C52   C100  S    
C307  H399  S    
C125  O121  S    
C306  H397  S    
C216  H179  S    
C181  C182  S    
C257  H279  S    
C177  H82   S    
C91   O87   S    
O7    Zn10  S    
O46   Zn14  S    
O61   C161  S    
C95   O91   S    
C210  H164  S    
C116  C132  A    
O11   Zn14  S    
O115  C283  S    
C168  H60   S    
C283  H339  S    
C106  C122  A    
C201  C202  S    
C279  H330  S    
C220  H188  S    
C182  H93   S    
C51   C67   S    
C315  H418  S    
O2    Zn11  S    
C190  H115  S    
C241  H242  S    
C154  H24   S    
C179  C180  S    
C194  H124  S    
C241  H241  S    
C110  C126  A    
O131  C317  S    
C30   O38   A    
C42   O70   S    
C269  H307  S    
C296  H370  S    
C291  H358  S    
C209  H161  S    
C193  H121  S    
C164  H50   S    
C187  H107  S    
C10   C106  A    
C306  H396  S    
C172  H69   S    
C86   C102  S    
C180  H90   S    
C12   C112  A    
C188  H110  S    
C69   C85   S    
C58   C74   S    
C247  H256  S    
C312  H410  S    
O2    Zn2   S    
C202  H143  S    
C229  H211  S    
C150  H15   S    
C35   O31   A    
C4    O12   A    
C223  C224  S    
C154  H25   S    
C71   O67   S    
C37   O45   A    
C62   C78   S    
C18   C141  S    
C47   O75   S    
C226  H204  S    
C255  H274  S    
C24   N3    A    
C44   C92   S    
C8    O16   A    
C153  H21   S    
C105  O101  S    
C158  H34   S    
O44   Zn4   S    
C29   O37   A    
C300  H380  S    
C245  C246  S    
C172  H70   S    
C197  H131  S    
C148  H10   S    
C92   O88   S    
C46   C85   S    
C45   C86   S    
C238  H233  S    
C248  C249  S    
O132  C319  S    
O48   Zn16  S    
C293  H364  S    
C104  O100  S    
C35   C85   S    
C203  C204  S    
C273  H315  S    
C312  H412  S    
C310  H407  S    
C211  C212  S    
C204  H149  S    
C243  H246  S    
C219  H187  S    
C289  H353  S    
C309  H403  S    
C130  C142  A    
C146  H5    S    
C263  H293  S    
C182  H94   S    
C155  C156  S    
C237  H231  S    
C280  H332  S    
C287  H348  S    
C193  C194  S    
C228  H208  S    
C302  H386  S    
C278  C279  S    
C239  H236  S    
C270  H309  S    
C319  H428  S    
C169  H62   S    
C244  H249  S    
O58   C155  S    
C206  H155  S    
C88   C104  S    
C299  C300  S    
O79   C197  S    
C212  H168  S    
C48   O76   S    
C184  H99   S    
C262  H291  S    
C229  C230  S    
C64   O60   S    
C7    C10   S    
C23   N8    A    
O2    Zn6   S    
C136  O132  S    
C20   N11   A    
C205  H151  S    
C179  H87   S    
C114  C130  A    
C41   C89   S    
C20   C143  S    
C107  C123  A    
C320  H432  S    
C261  H288  S    
C31   O39   A    
O105  C253  S    
C250  H262  S    
C118  C134  A    
C311  C312  S    
C176  H78   S    
O124  C303  S    
O4    Zn4   S    
C290  H357  S    
C67   C83   S    
C310  H406  S    
C147  C148  S    
O126  C307  S    
C220  H190  S    
O66   C171  S    
C127  O123  S    
C112  O108  S    
C258  H281  S    
C252  H267  S    
C229  H212  S    
O52   Zn12  S    
C161  H41   S    
C102  O98   S    
C237  H232  S    
C99   O95   S    
O9    Zn12  S    
C129  C141  A    
O90   C219  S    
C283  C284  S    
C292  H362  S    
O60   C159  S    
C268  H304  S    
O13   Zn8   S    
C179  H86   S    
C298  H377  S    
C231  H217  S    
C309  C310  S    
C304  H391  S    
C64   C80   S    
O3    Zn3   S    
C160  H40   S    
C206  H153  S    
C281  H335  S    
C232  H219  S    
C157  C158  S    
C300  H381  S    
C315  H419  S    
C15   C119  A    
O45   Zn13  S    
C301  H383  S    
C257  H278  S    
C278  H327  S    
C174  H74   S    
C58   O54   S    
C51   O79   S    
C2    O6    A    
C45   O73   S    
C231  C232  S    
O89   C217  S    
O1    Zn16  S    
C53   O81   S    
C60   C99   S    
C36   O32   A    
C22   N5    A    
C256  H277  S    
O125  C305  S    
O91   C221  S    
C6    O18   A    
C19   N12   A    
C202  H144  S    
C287  C288  S    
C210  H165  S    
C211  H166  S    
C5    O13   A    
O81   C201  S    
C317  C318  S    
C42   C90   S    
O37   Zn5   S    
C17   N10   A    
C16   C116  A    
O31   Zn6   S    
C308  H401  S    
C164  H49   S    
C96   O92   S    
C213  H172  S    
C52   O80   S    
C24   C139  S    
C9    C109  A    
C65   C90   S    
C260  C261  S    
C227  H207  S    
O119  C293  S    
C11   C111  A    
C270  H308  S    
C68   C84   S    
C120  O116  S    
C56   C104  S    
C161  C162  S    
C267  H302  S    
C69   C94   S    
C147  H6    S    
C133  O129  S    
O107  C259  S    
C203  H146  S    
C63   O59   S    
C63   C79   S    
C71   C96   S    
C315  C316  S    
C125  C137  A    
O82   C203  S    
C205  C206  S    
C119  C135  A    
C38   O34   A    
C83   C99   S    
C197  C198  S    
C80   C96   S    
C249  H260  S    
C272  H313  S    
C188  H108  S    
C79   C95   S    
O93   C225  S    
C224  H199  S    
C134  C142  A    
N2    N5    A    
C242  H244  S    
C183  C184  S    
C65   C81   S    
C156  H30   S    
C29   C79   S    
C117  O113  S    
C228  H210  S    
C163  C164  S    
C258  H282  S    
C301  C302  S    
C274  H319  S    
C59   O55   S    
C162  H44   S    
C304  H390  S    
C175  H77   S    
C2    C15   S    
C261  H289  S    
C122  C138  A    
O67   C173  S    
C285  H343  S    
C3    C14   S    
C49   C65   S    
N10   N13   A    
C238  H235  S    
C71   C87   S    
C68   O64   S    
O47   Zn15  S    
C259  H283  S    
C271  H312  S    
C183  H96   S    
C129  O125  S    
C191  H116  S    
C221  H192  S    
C249  H261  S    
C206  H154  S    
C277  H325  S    
C72   O68   S    
C302  H385  S    
C239  H237  S    
C304  H392  S    
C281  H334  S    
C316  H420  S    
C320  H431  S    
O3    Zn10  S    
O127  C309  S    
C213  H171  S    
C268  C269  S    
C215  H176  S    
C26   O42   A    
C305  H393  S    
C288  H350  S    
C124  C140  A    
O62   C163  S    
C198  H135  S    
C305  C306  S    
C126  O122  S    
C185  H102  S    
C246  H252  S    
C317  H423  S    
C319  H429  S    
C232  H218  S    
C6    O14   A    
C318  H425  S    
C133  C141  A    
C100  O96   S    
C307  C308  S    
C115  O111  S    
C89   O85   S    
C152  H20   S    
C151  H16   S    
C16   C120  A    
C73   C89   S    
C145  H1    S    
C32   O40   A    
C14   C114  A    
O128  C311  S    
C220  H189  S    
C70   O66   S    
C225  H202  S    
C170  H65   S    
C235  C236  S    
C166  H53   S    
O56   C151  S    
C251  C252  S    
C57   C98   S    
C77   C93   S    
C60   O56   S    
C60   C76   S    
C10   C110  A    
C46   O74   S    
C171  H67   S    
C279  H331  S    
O77   C193  S    
C128  C140  A    
O109  C265  S    
C101  O97   S    
C44   O72   S    
C112  C128  A    
C166  H54   S    
C62   O58   S    
O10   Zn11  S    
O120  C295  S    
C50   C66   S    
C266  H299  S    
C165  H51   S    
O108  C262  S    
C306  H395  S    
O121  C297  S    
C189  H111  S    
C160  H39   S    
C201  H142  S    
O14   Zn7   S    
O70   C179  S    
C120  C136  A    
O74   C187  S    
O129  C313  S    
C263  C264  S    
C155  H26   S    
C213  C214  S    
C250  C251  S    
C223  H197  S    
C260  H285  S    
C265  H297  S    
C266  C267  S    
C162  H43   S    
C54   O82   S    
C3    O11   A    
C185  C186  S    
C192  H118  S    
C230  H213  S    
O103  C247  S    
C211  H167  S    
C115  C131  A    
O63   C165  S    
C240  H240  S    
C186  H104  S    
C295  C296  S    
C214  H173  S    
O118  C291  S    
C113  C129  A    
O64   C167  S    
C164  H48   S    
C30   O26   A    
C234  H225  S    
C24   N7    A    
C122  O118  S    
C121  O117  S    
O72   C183  S    
C152  H18   S    
C276  H324  S    
C254  H272  S    
C159  H36   S    
C286  C287  S    
C205  H152  S    
C282  H337  S    
C175  C176  S    
C57   C73   S    
C253  C254  S    
C19   C144  S    
C55   C103  S    
C68   C91   S    
C57   O53   S    
C264  H294  S    
C145  C146  S    
C216  H178  S    
C4    C13   S    
C35   O51   A    
C313  H413  S    
C289  H354  S    
C48   C64   S    
C288  H351  S    
C261  H287  S    
C173  H72   S    
C33   O49   A    
C259  C260  S    
C29   O25   A    
O110  C268  S    
C14   C118  A    
C20   N15   A    
C7    O15   A    
O24   Zn13  S    
C255  H275  S    
C156  H29   S    
C192  H120  S    
C190  H114  S    
O3    Zn14  S    
C28   C78   S    
C210  H163  S    
O122  C299  S    
C52   C68   S    
C62   C101  S    
C28   O24   A    
C244  C245  S    
C30   C80   S    
C200  H140  S    
C187  C188  S    
O130  C315  S    
C196  H130  S    
C310  H405  S    
O123  C301  S    
C49   C74   S    
C54   C102  S    
O21   Zn12  S    
C193  H122  S    
C43   C84   S    
C72   C95   S    
O17   Zn4   S    
O96   C231  S    
C58   C97   S    
C127  C139  A    
C169  C170  S    
C275  H320  S    
O23   Zn14  S    
N3    N8    A    
C188  H109  S    
C25   O21   A    
C224  H198  S    
C197  H132  S    
C51   C99   S    
C318  H427  S    
C149  H12   S    
C150  H14   S    
C154  H23   S    
C314  H416  S    
C32   O28   A    
C305  H394  S    
C28   O44   A    
C320  H430  S    
C218  H183  S    
C39   C81   S    
O84   C207  S    
C268  H305  S    
C272  C273  S    
C147  H7    S    
C41   C57   S    
C1    C16   S    
C235  H226  S    
C8    C9    S    
C264  H296  S    
C153  H22   S    
C162  H45   S    
C215  C216  S    
C168  H59   S    
C222  H193  S    
C295  H368  S    
C208  H160  S    
C293  C294  S    
C43   C91   S    
C169  H61   S    
C283  H340  S    
C148  H9    S    
C313  C314  S    
C209  H162  S    
C248  H258  S    
O99   C237  S    
C167  H56   S    
C103  O99   S    
C273  H316  S    
C195  C196  S    
C22   N1    A    
C1    O5    A    
C300  H382  S    
O41   Zn1   S    
C131  O127  S    
C217  H182  S    
C204  H148  S    
C7    O19   A    
C21   N6    A    
C269  H306  S    
C309  H404  S    
C17   N14   A    
C146  H4    S    
C5    O17   A    
C314  H415  S    
O4    Zn13  S    
C18   N9    A    
C251  H265  S    
C76   C92   S    
C50   O78   S    
C15   C115  A    
C109  C125  A    
C31   C73   S    
C2    O10   A    
C200  H138  S    
C275  H321  S    
C278  H328  S    
O19   Zn6   S    
C111  C127  A    
C56   O84   S    
C302  H387  S    
C157  H32   S    
C111  O107  S    
C25   C75   S    
C284  H341  S    
C70   C86   S    
C59   C75   S    
C236  H230  S    
C85   C101  S    
C273  H317  S    
C160  H38   S    
C180  H88   S    
C146  H3    S    
C246  H254  S    
C98   O94   S    
O1    Zn1   S    
C163  H46   S    
C126  C138  A    
C214  H175  S    
C183  H97   S    
C38   O46   A    
C294  H365  S    
N11   N16   A    
C157  H31   S    
C189  C190  S    
C37   C87   S    
N12   N15   A    
C109  O105  S    
C222  H194  S    
C226  H205  S    
C27   C77   S    
C119  O115  S    
C264  H295  S    
C303  H389  S    
C233  H222  S    
C286  H346  S    
C281  C282  S    
O100  C239  S    
C40   O36   A    
O104  C250  S    
C75   C91   S    
C290  H356  S    
C275  C276  S    
C113  O109  S    
C178  H83   S    
C207  H156  S    
C245  H251  S    
O101  C241  S    
C216  H180  S    
O86   C211  S    
C47   C88   S    
C316  H422  S    
C61   C102  S    
C240  H239  S    
C218  H184  S    
C252  H266  S    
C166  H55   S    
C161  H42   S    
O36   Zn1   S    
C265  C266  S    
C299  H378  S    
O4    Zn8   S    
C198  H133  S    
C234  H224  S    
C81   C97   S    
C182  H95   S    
C297  H374  S    
C1    O9    A    
C279  H329  S    
C208  H159  S    
C181  H92   S    
C135  O131  S    
C189  H112  S    
C177  H81   S    
C218  H185  S    
C311  H409  S    
C204  H150  S    
C292  H360  S    
C110  O106  S    
O116  C286  S    
C65   O61   S    
C255  H273  S    
C196  H128  S    
C294  H367  S    
C47   C95   S    
C187  H106  S    
C195  H126  S    
C301  H384  S    
C180  H89   S    
C174  H73   S    
O87   C213  S    
C94   O90   S    
C149  C150  S    
C130  O126  S    
C13   C113  A    
C134  O130  S    
C230  H214  S    
C247  H255  S    
C312  H411  S    
C156  H28   S    
