data_mof_unit_1205.cif
_audit_creation_date              2012-12-10T17:18:31-0500
_audit_creation_method            fapswitch 2.2
_symmetry_space_group_name_H-M    P1
_symmetry_Int_Tables_number       1
_space_group_crystal_system       monoclinic
_cell_length_a                    25.839175
_cell_length_b                    25.914226
_cell_length_c                    25.914218
_cell_angle_alpha                 90.0
_cell_angle_beta                  89.999988
_cell_angle_gamma                 90.0
_cell_volume                      17352.217918

loop_
_atom_site_label
_atom_site_type_symbol
_atom_type_description
_atom_site_fract_x
_atom_site_fract_y
_atom_site_fract_z
_atom_type_partial_charge
C1    C     C_R   0.750000 0.610122 0.750000 0.481085
C2    C     C_R   0.389828 0.750000 0.750000 0.480551
C3    C     C_R   0.161885 0.053741 0.787302 -0.086389
C4    C     C_R   0.838114 0.212696 0.053741 -0.086389
C5    C     C_R   0.161886 0.787305 0.946259 -0.086388
C6    C     C_R   0.838113 0.053741 0.787305 -0.086389
C7    C     C_R   0.161887 0.946259 0.212694 -0.086389
C8    C     C_R   0.338115 0.053741 0.712698 -0.086389
C9    C     C_R   0.661887 0.946259 0.287306 -0.086388
C10   C     C_R   0.053945 0.817413 0.817412 -0.091498
C11   C     C_R   0.946055 0.182587 0.182587 -0.091498
C12   C     C_R   0.661886 0.946259 0.712695 -0.086388
C13   C     C_R   0.610172 0.750000 0.250000 0.480550
C14   C     C_R   0.338113 0.053741 0.287306 -0.086389
C15   C     C_R   0.946055 0.317413 0.682588 -0.091498
C16   C     C_R   0.053945 0.682588 0.317413 -0.091497
C17   C     C_R   0.661887 0.053741 0.287306 -0.086389
C18   C     C_R   0.338115 0.946259 0.712698 -0.086389
C19   C     C_R   0.946055 0.682588 0.317413 -0.091500
C20   C     C_R   0.053945 0.317413 0.682588 -0.091496
C21   C     C_R   0.338113 0.946259 0.287306 -0.086389
C22   C     C_R   0.661886 0.053741 0.712695 -0.086389
C23   C     C_R   0.053945 0.182587 0.182587 -0.091497
C24   C     C_R   0.389827 0.250000 0.750000 0.480551
C25   C     C_R   0.946055 0.817413 0.817412 -0.091497
C26   C     C_R   0.553945 0.182587 0.317412 -0.091497
C27   C     C_R   0.446055 0.817412 0.682587 -0.091498
C28   C     C_R   0.161889 0.287311 0.446259 -0.086388
C29   C     C_R   0.838119 0.712706 0.553741 -0.086389
C30   C     C_R   0.446055 0.317413 0.817412 -0.091497
C31   C     C_R   0.553945 0.682588 0.182587 -0.091497
C32   C     C_R   0.838113 0.287307 0.553741 -0.086388
C33   C     C_R   0.161887 0.712694 0.446259 -0.086388
C34   C     C_R   0.553945 0.817412 0.682587 -0.091500
C35   C     C_R   0.610172 0.750000 0.750000 0.480550
C36   C     C_R   0.446055 0.182587 0.317412 -0.091496
C37   C     C_R   0.161887 0.712694 0.553741 -0.086389
C38   C     C_R   0.838113 0.287307 0.446259 -0.086389
C39   C     C_R   0.446055 0.682588 0.182587 -0.091497
C40   C     C_R   0.553945 0.317413 0.817412 -0.091499
C41   C     C_R   0.838119 0.712706 0.446259 -0.086389
C42   C     C_R   0.161889 0.287311 0.553741 -0.086388
C43   C     C_R   0.161887 0.553741 0.712694 -0.086388
C44   C     C_R   0.838113 0.446259 0.287306 -0.086389
C45   C     C_R   0.161887 0.446259 0.287306 -0.086389
C46   C     C_R   0.389827 0.250000 0.250000 0.480551
C47   C     C_R   0.838115 0.553741 0.712699 -0.086389
C48   C     C_R   0.838115 0.446259 0.712699 -0.086389
C49   C     C_R   0.161887 0.553741 0.287306 -0.086389
C50   C     C_R   0.838113 0.553741 0.287306 -0.086388
C51   C     C_R   0.161887 0.446259 0.712694 -0.086389
C52   C     C_R   0.526898 0.649683 0.850316 -0.128710
C53   C     C_R   0.473102 0.350316 0.149684 -0.128709
C54   C     C_R   0.618875 0.805348 0.473201 -0.116578
C55   C     C_R   0.381112 0.194625 0.526799 -0.116573
C56   C     C_R   0.473102 0.850316 0.350317 -0.128710
C57   C     C_R   0.610172 0.250000 0.750000 0.480551
C58   C     C_R   0.526898 0.149683 0.649684 -0.128709
C59   C     C_R   0.381116 0.805366 0.526799 -0.116575
C60   C     C_R   0.618884 0.194632 0.473201 -0.116574
C61   C     C_R   0.526898 0.350316 0.149684 -0.128710
C62   C     C_R   0.473102 0.649683 0.850316 -0.128709
C63   C     C_R   0.618884 0.194632 0.526799 -0.116574
C64   C     C_R   0.381116 0.805366 0.473201 -0.116575
C65   C     C_R   0.473102 0.149683 0.649684 -0.128708
C66   C     C_R   0.526898 0.850316 0.350317 -0.128713
C67   C     C_R   0.381113 0.194625 0.473201 -0.116573
C68   C     C_R   0.389828 0.750000 0.250000 0.480551
C69   C     C_R   0.618875 0.805348 0.526799 -0.116578
C70   C     C_R   0.618884 0.526799 0.194633 -0.116574
C71   C     C_R   0.381116 0.473201 0.805366 -0.116575
C72   C     C_R   0.618881 0.473201 0.805360 -0.116576
C73   C     C_R   0.381116 0.526799 0.194632 -0.116574
C74   C     C_R   0.381116 0.473201 0.194632 -0.116574
C75   C     C_R   0.618881 0.526799 0.805360 -0.116576
C76   C     C_R   0.381116 0.526799 0.805366 -0.116575
C77   C     C_R   0.618884 0.473201 0.194633 -0.116575
C78   C     C_R   0.026898 0.149683 0.850316 -0.128711
C79   C     C_R   0.250000 0.750000 0.389878 0.481085
C80   C     C_R   0.973102 0.850316 0.149683 -0.128709
C81   C     C_R   0.618883 0.305363 0.973201 -0.116575
C82   C     C_R   0.381117 0.694634 0.026799 -0.116574
C83   C     C_R   0.973102 0.350317 0.350316 -0.128708
C84   C     C_R   0.026898 0.649684 0.649683 -0.128711
C85   C     C_R   0.381116 0.305366 0.026799 -0.116575
C86   C     C_R   0.618885 0.694632 0.973201 -0.116574
C87   C     C_R   0.026898 0.850316 0.149683 -0.128709
C88   C     C_R   0.973102 0.149683 0.850316 -0.128710
C89   C     C_R   0.618885 0.694632 0.026799 -0.116574
C90   C     C_R   0.750000 0.250000 0.610122 0.481085
C91   C     C_R   0.381116 0.305366 0.973201 -0.116575
C92   C     C_R   0.973102 0.649684 0.649683 -0.128714
C93   C     C_R   0.026898 0.350317 0.350316 -0.128707
C94   C     C_R   0.381117 0.694634 0.973201 -0.116575
C95   C     C_R   0.618883 0.305363 0.026799 -0.116575
C96   C     C_R   0.118884 0.194634 0.973201 -0.116574
C97   C     C_R   0.881115 0.805369 0.026799 -0.116574
C98   C     C_R   0.118884 0.026799 0.194633 -0.116574
C99   C     C_R   0.881116 0.973201 0.805366 -0.116575
C100  C     C_R   0.118883 0.805366 0.026799 -0.116574
C101  C     C_R   0.750000 0.750000 0.389878 0.481084
C102  C     C_R   0.881117 0.194637 0.973201 -0.116575
C103  C     C_R   0.118881 0.973201 0.805361 -0.116575
C104  C     C_R   0.881116 0.026799 0.194633 -0.116574
C105  C     C_R   0.881115 0.805368 0.973201 -0.116574
C106  C     C_R   0.118883 0.194634 0.026799 -0.116575
C107  C     C_R   0.881116 0.973201 0.194633 -0.116574
C108  C     C_R   0.118881 0.026799 0.805361 -0.116576
C109  C     C_R   0.881117 0.194637 0.026799 -0.116575
C110  C     C_R   0.118883 0.805366 0.973201 -0.116575
C111  C     C_R   0.881116 0.026799 0.805366 -0.116575
C112  C     C_R   0.250000 0.389878 0.250000 0.481085
C113  C     C_R   0.250000 0.250000 0.610122 0.481086
C114  C     C_R   0.118884 0.973201 0.194633 -0.116574
C115  C     C_R   0.381119 0.026799 0.694640 -0.116576
C116  C     C_R   0.618884 0.973201 0.305367 -0.116574
C117  C     C_R   0.026898 0.850317 0.850316 -0.128710
C118  C     C_R   0.973102 0.149684 0.149683 -0.128709
C119  C     C_R   0.618883 0.973201 0.694634 -0.116574
C120  C     C_R   0.381116 0.026799 0.305367 -0.116574
C121  C     C_R   0.973102 0.350317 0.649684 -0.128710
C122  C     C_R   0.026898 0.649684 0.350317 -0.128710
C123  C     C_R   0.618884 0.026799 0.305367 -0.116574
C124  C     C_R   0.750000 0.250000 0.389878 0.481085
C125  C     C_R   0.381119 0.973201 0.694639 -0.116576
C126  C     C_R   0.973102 0.649684 0.350317 -0.128712
C127  C     C_R   0.026898 0.350317 0.649684 -0.128707
C128  C     C_R   0.381116 0.973201 0.305367 -0.116574
C129  C     C_R   0.618883 0.026799 0.694634 -0.116575
C130  C     C_R   0.026898 0.149683 0.149683 -0.128709
C131  C     C_R   0.973102 0.850317 0.850316 -0.128709
C132  C     C_R   0.526898 0.149683 0.350316 -0.128708
C133  C     C_R   0.473102 0.850316 0.649683 -0.128712
C134  C     C_R   0.118887 0.305375 0.473201 -0.116573
C135  C     C_R   0.250000 0.750000 0.610122 0.481085
C136  C     C_R   0.881125 0.694652 0.526799 -0.116577
C137  C     C_R   0.473102 0.350317 0.850316 -0.128710
C138  C     C_R   0.526898 0.649684 0.149683 -0.128708
C139  C     C_R   0.881115 0.305369 0.526799 -0.116574
C140  C     C_R   0.118884 0.694634 0.473201 -0.116575
C141  C     C_R   0.526898 0.850316 0.649683 -0.128713
C142  C     C_R   0.473102 0.149683 0.350316 -0.128707
C143  C     C_R   0.118884 0.694634 0.526799 -0.116575
C144  C     C_R   0.881115 0.305369 0.473201 -0.116573
C145  C     C_R   0.473102 0.649684 0.149683 -0.128709
C146  C     C_R   0.250000 0.250000 0.389878 0.481086
C147  C     C_R   0.526898 0.350317 0.850316 -0.128711
C148  C     C_R   0.881125 0.694652 0.473201 -0.116578
C149  C     C_R   0.118887 0.305375 0.526799 -0.116573
C150  C     C_R   0.118884 0.526799 0.694634 -0.116575
C151  C     C_R   0.881116 0.473201 0.305366 -0.116574
C152  C     C_R   0.118884 0.473201 0.305367 -0.116574
C153  C     C_R   0.881119 0.526799 0.694640 -0.116575
C154  C     C_R   0.881119 0.473201 0.694640 -0.116575
C155  C     C_R   0.118884 0.526799 0.305367 -0.116574
C156  C     C_R   0.881116 0.526799 0.305366 -0.116574
C157  C     C_R   0.750000 0.750000 0.610122 0.481084
C158  C     C_R   0.118884 0.473201 0.694634 -0.116575
C159  C     C_R   0.472691 0.716382 0.783618 0.016378
C160  C     C_R   0.527309 0.283618 0.216382 0.016378
C161  C     C_R   0.705884 0.768116 0.527247 0.013517
C162  C     C_R   0.294112 0.231875 0.472752 0.013517
C163  C     C_R   0.527309 0.783617 0.283618 0.016378
C164  C     C_R   0.472691 0.216382 0.716382 0.016378
C165  C     C_R   0.294113 0.768122 0.472752 0.013517
C166  C     C_R   0.705887 0.231877 0.527247 0.013517
C167  C     C_R   0.472691 0.283618 0.216382 0.016378
C168  C     C_R   0.250000 0.110122 0.750000 0.481085
C169  C     C_R   0.527309 0.716382 0.783618 0.016378
C170  C     C_R   0.705887 0.231877 0.472752 0.013517
C171  C     C_R   0.294114 0.768122 0.527247 0.013517
C172  C     C_R   0.527309 0.216382 0.716382 0.016378
C173  C     C_R   0.472691 0.783618 0.283618 0.016378
C174  C     C_R   0.294112 0.231875 0.527247 0.013517
C175  C     C_R   0.705884 0.768116 0.472752 0.013517
C176  C     C_R   0.705886 0.472752 0.231877 0.013517
C177  C     C_R   0.294113 0.527247 0.768122 0.013517
C178  C     C_R   0.705885 0.527247 0.768120 0.013517
C179  C     C_R   0.750000 0.889878 0.250000 0.481085
C180  C     C_R   0.294113 0.472752 0.231877 0.013517
C181  C     C_R   0.294113 0.527247 0.231877 0.013517
C182  C     C_R   0.705886 0.472753 0.768120 0.013517
C183  C     C_R   0.294113 0.472752 0.768122 0.013517
C184  C     C_R   0.705886 0.527247 0.231877 0.013517
C185  C     C_R   0.972691 0.216382 0.783618 0.016378
C186  C     C_R   0.027309 0.783618 0.216382 0.016378
C187  C     C_R   0.705886 0.268121 0.027247 0.013517
C188  C     C_R   0.294113 0.731878 0.972752 0.013517
C189  C     C_R   0.027309 0.283618 0.283618 0.016378
C190  C     C_R   0.750000 0.110122 0.750000 0.481085
C191  C     C_R   0.972691 0.716382 0.716382 0.016378
C192  C     C_R   0.294113 0.268122 0.972752 0.013517
C193  C     C_R   0.705887 0.731877 0.027247 0.013517
C194  C     C_R   0.972691 0.783618 0.216382 0.016378
C195  C     C_R   0.027309 0.216382 0.783618 0.016378
C196  C     C_R   0.705887 0.731877 0.972752 0.013517
C197  C     C_R   0.294114 0.268122 0.027247 0.013517
C198  C     C_R   0.027309 0.716382 0.716382 0.016378
C199  C     C_R   0.972691 0.283618 0.283618 0.016378
C200  C     C_R   0.294114 0.731878 0.027247 0.013517
C201  C     C_R   0.250000 0.889878 0.250000 0.481085
C202  C     C_R   0.705886 0.268122 0.972752 0.013517
C203  C     C_R   0.205886 0.231878 0.027247 0.013517
C204  C     C_R   0.794113 0.768123 0.972752 0.013517
C205  C     C_R   0.205887 0.972752 0.231877 0.013517
C206  C     C_R   0.794114 0.027248 0.768122 0.013517
C207  C     C_R   0.205886 0.768122 0.972752 0.013517
C208  C     C_R   0.794114 0.231878 0.027247 0.013517
C209  C     C_R   0.205886 0.027248 0.768120 0.013517
C210  C     C_R   0.794113 0.972752 0.231877 0.013517
C211  C     C_R   0.794113 0.768123 0.027247 0.013517
C212  C     C_R   0.750000 0.110122 0.250000 0.481085
C213  C     C_R   0.205886 0.231878 0.972752 0.013517
C214  C     C_R   0.794113 0.027247 0.231877 0.013517
C215  C     C_R   0.205886 0.972752 0.768120 0.013517
C216  C     C_R   0.794114 0.231878 0.972752 0.013517
C217  C     C_R   0.205886 0.768122 0.027247 0.013517
C218  C     C_R   0.794113 0.972752 0.768122 0.013517
C219  C     C_R   0.205887 0.027248 0.231877 0.013517
C220  C     C_R   0.294114 0.972752 0.731880 0.013517
C221  C     C_R   0.705886 0.027248 0.268122 0.013517
C222  C     C_R   0.972691 0.783618 0.783618 0.016378
C223  C     C_R   0.750000 0.610122 0.250000 0.481085
C224  C     C_R   0.250000 0.889878 0.750000 0.481085
C225  C     C_R   0.027309 0.216382 0.216382 0.016378
C226  C     C_R   0.705886 0.027247 0.731878 0.013517
C227  C     C_R   0.294113 0.972752 0.268122 0.013517
C228  C     C_R   0.027309 0.283618 0.716382 0.016378
C229  C     C_R   0.972691 0.716382 0.283618 0.016378
C230  C     C_R   0.705886 0.972752 0.268122 0.013517
C231  C     C_R   0.294114 0.027247 0.731880 0.013517
C232  C     C_R   0.027309 0.716382 0.283618 0.016378
C233  C     C_R   0.972691 0.283618 0.716382 0.016378
C234  C     C_R   0.294113 0.027247 0.268122 0.013517
C235  C     C_R   0.250000 0.110122 0.250000 0.481085
C236  C     C_R   0.705886 0.972752 0.731878 0.013517
C237  C     C_R   0.972691 0.216382 0.216382 0.016378
C238  C     C_R   0.027309 0.783618 0.783618 0.016378
C239  C     C_R   0.472691 0.216382 0.283618 0.016378
C240  C     C_R   0.527309 0.783618 0.716382 0.016378
C241  C     C_R   0.205888 0.268125 0.527247 0.013517
C242  C     C_R   0.794116 0.731883 0.472752 0.013517
C243  C     C_R   0.527309 0.283618 0.783618 0.016378
C244  C     C_R   0.472691 0.716382 0.216382 0.016378
C245  C     C_R   0.794113 0.268123 0.472752 0.013517
C246  C     C_R   0.750000 0.889878 0.750000 0.481085
C247  C     C_R   0.205886 0.731878 0.527247 0.013517
C248  C     C_R   0.472691 0.783618 0.716382 0.016378
C249  C     C_R   0.527309 0.216382 0.283618 0.016378
C250  C     C_R   0.205886 0.731878 0.472752 0.013517
C251  C     C_R   0.794113 0.268123 0.527247 0.013517
C252  C     C_R   0.527309 0.716382 0.216382 0.016378
C253  C     C_R   0.472691 0.283618 0.783618 0.016378
C254  C     C_R   0.794116 0.731883 0.527247 0.013517
C255  C     C_R   0.205888 0.268125 0.472752 0.013517
C256  C     C_R   0.205886 0.472753 0.731877 0.013517
C257  C     C_R   0.110172 0.250000 0.750000 0.480551
C258  C     C_R   0.794113 0.527247 0.268122 0.013517
C259  C     C_R   0.205887 0.527247 0.268123 0.013517
C260  C     C_R   0.794114 0.472753 0.731880 0.013517
C261  C     C_R   0.794114 0.527247 0.731880 0.013517
C262  C     C_R   0.205887 0.472753 0.268123 0.013517
C263  C     C_R   0.794113 0.472752 0.268122 0.013517
C264  C     C_R   0.205886 0.527247 0.731877 0.013517
C265  C     C_R   0.445920 0.750000 0.750000 0.015454
C266  C     C_R   0.554080 0.250000 0.250000 0.015455
C267  C     C_R   0.750000 0.750000 0.554030 0.011638
C268  C     C_R   0.889827 0.750000 0.250000 0.480550
C269  C     C_R   0.250000 0.250000 0.445970 0.011642
C270  C     C_R   0.554080 0.750000 0.250000 0.015455
C271  C     C_R   0.445920 0.250000 0.750000 0.015454
C272  C     C_R   0.250000 0.750000 0.445970 0.011640
C273  C     C_R   0.750000 0.250000 0.554030 0.011641
C274  C     C_R   0.445920 0.250000 0.250000 0.015455
C275  C     C_R   0.554080 0.750000 0.750000 0.015455
C276  C     C_R   0.750000 0.250000 0.445970 0.011641
C277  C     C_R   0.250000 0.750000 0.554030 0.011640
C278  C     C_R   0.554080 0.250000 0.750000 0.015455
C279  C     C_R   0.110172 0.250000 0.250000 0.480551
C280  C     C_R   0.445920 0.750000 0.250000 0.015454
C281  C     C_R   0.250000 0.250000 0.554030 0.011642
C282  C     C_R   0.750000 0.750000 0.445970 0.011638
C283  C     C_R   0.750000 0.445970 0.250000 0.011641
C284  C     C_R   0.250000 0.554030 0.750000 0.011640
C285  C     C_R   0.750000 0.554030 0.750000 0.011640
C286  C     C_R   0.250000 0.445970 0.250000 0.011641
C287  C     C_R   0.250000 0.554030 0.250000 0.011641
C288  C     C_R   0.750000 0.445970 0.750000 0.011640
C289  C     C_R   0.250000 0.445970 0.750000 0.011640
C290  C     C_R   0.889827 0.750000 0.750000 0.480550
C291  C     C_R   0.750000 0.554030 0.250000 0.011640
C292  C     C_R   0.945920 0.250000 0.750000 0.015455
C293  C     C_R   0.054080 0.750000 0.250000 0.015454
C294  C     C_R   0.750000 0.250000 0.054030 0.011640
C295  C     C_R   0.250000 0.750000 0.945970 0.011640
C296  C     C_R   0.054080 0.250000 0.250000 0.015455
C297  C     C_R   0.945920 0.750000 0.750000 0.015454
C298  C     C_R   0.250000 0.250000 0.945970 0.011640
C299  C     C_R   0.750000 0.750000 0.054030 0.011641
C300  C     C_R   0.945920 0.750000 0.250000 0.015455
C301  C     C_R   0.110172 0.750000 0.250000 0.480551
C302  C     C_R   0.054080 0.250000 0.750000 0.015455
C303  C     C_R   0.750000 0.750000 0.945970 0.011641
C304  C     C_R   0.250000 0.250000 0.054030 0.011641
C305  C     C_R   0.054080 0.750000 0.750000 0.015454
C306  C     C_R   0.945920 0.250000 0.250000 0.015455
C307  C     C_R   0.250000 0.750000 0.054030 0.011640
C308  C     C_R   0.750000 0.250000 0.945970 0.011640
C309  C     C_R   0.250000 0.945970 0.250000 0.011640
C310  C     C_R   0.750000 0.054030 0.750000 0.011640
C311  C     C_R   0.250000 0.054030 0.750000 0.011640
C312  C     C_R   0.889827 0.250000 0.750000 0.480551
C313  C     C_R   0.750000 0.945970 0.250000 0.011640
C314  C     C_R   0.750000 0.054030 0.250000 0.011641
C315  C     C_R   0.250000 0.945970 0.750000 0.011640
C316  C     C_R   0.750000 0.945970 0.750000 0.011640
C317  C     C_R   0.250000 0.054030 0.250000 0.011641
C318  C     C_R   0.110172 0.750000 0.750000 0.480550
C319  C     C_R   0.250000 0.389878 0.750000 0.481085
C320  C     C_R   0.889827 0.250000 0.250000 0.480551
C321  C     C_R   0.250000 0.250000 0.889878 0.481085
C322  C     C_R   0.750000 0.750000 0.110122 0.481085
C323  C     C_R   0.250000 0.750000 0.889878 0.481085
C324  C     C_R   0.750000 0.250000 0.110122 0.481085
C325  C     C_R   0.750000 0.750000 0.889878 0.481085
C326  C     C_R   0.250000 0.250000 0.110122 0.481085
C327  C     C_R   0.750000 0.250000 0.889878 0.481085
C328  C     C_R   0.250000 0.750000 0.110122 0.481085
C329  C     C_R   0.553945 0.682587 0.817412 -0.091498
C330  C     C_R   0.250000 0.610122 0.250000 0.481085
C331  C     C_R   0.446055 0.317413 0.182587 -0.091497
C332  C     C_R   0.661881 0.787294 0.446259 -0.086390
C333  C     C_R   0.338111 0.212688 0.553741 -0.086388
C334  C     C_R   0.446055 0.817412 0.317413 -0.091497
C335  C     C_R   0.553945 0.182587 0.682588 -0.091497
C336  C     C_R   0.338113 0.787305 0.553741 -0.086388
C337  C     C_R   0.661887 0.212693 0.446259 -0.086389
C338  C     C_R   0.553945 0.317413 0.182587 -0.091498
C339  C     C_R   0.446055 0.682587 0.817412 -0.091498
C340  C     C_R   0.661887 0.212693 0.553741 -0.086389
C341  C     C_R   0.750000 0.389878 0.750000 0.481085
C342  C     C_R   0.338113 0.787305 0.446259 -0.086389
C343  C     C_R   0.446055 0.182587 0.682588 -0.091497
C344  C     C_R   0.553945 0.817412 0.317413 -0.091500
C345  C     C_R   0.338111 0.212689 0.446259 -0.086388
C346  C     C_R   0.661881 0.787294 0.553741 -0.086390
C347  C     C_R   0.661887 0.553741 0.212694 -0.086388
C348  C     C_R   0.338113 0.446259 0.787306 -0.086388
C349  C     C_R   0.661885 0.446259 0.787301 -0.086389
C350  C     C_R   0.338113 0.553741 0.212694 -0.086389
C351  C     C_R   0.338113 0.446259 0.212694 -0.086388
C352  C     C_R   0.250000 0.610122 0.750000 0.481085
C353  C     C_R   0.661885 0.553741 0.787301 -0.086389
C354  C     C_R   0.338113 0.553741 0.787306 -0.086389
C355  C     C_R   0.661887 0.446259 0.212694 -0.086388
C356  C     C_R   0.053945 0.182587 0.817412 -0.091498
C357  C     C_R   0.946055 0.817412 0.182587 -0.091497
C358  C     C_R   0.661886 0.287304 0.946259 -0.086389
C359  C     C_R   0.338113 0.712695 0.053741 -0.086389
C360  C     C_R   0.946055 0.317413 0.317412 -0.091497
C361  C     C_R   0.053945 0.682587 0.682587 -0.091497
C362  C     C_R   0.338113 0.287305 0.053741 -0.086388
C363  C     C_R   0.750000 0.389878 0.250000 0.481085
C364  C     C_R   0.661887 0.712693 0.946259 -0.086388
C365  C     C_R   0.053945 0.817412 0.182587 -0.091497
C366  C     C_R   0.946055 0.182587 0.817412 -0.091498
C367  C     C_R   0.661887 0.712693 0.053741 -0.086389
C368  C     C_R   0.338113 0.287305 0.946259 -0.086389
C369  C     C_R   0.946055 0.682588 0.682587 -0.091501
C370  C     C_R   0.053945 0.317413 0.317412 -0.091496
C371  C     C_R   0.338114 0.712694 0.946259 -0.086389
C372  C     C_R   0.661886 0.287304 0.053741 -0.086389
C373  C     C_R   0.161886 0.212695 0.946259 -0.086388
C374  C     C_R   0.610172 0.250000 0.250000 0.480551
C375  C     C_R   0.838113 0.787307 0.053741 -0.086388
C376  C     C_R   0.161887 0.053741 0.212694 -0.086388
C377  C     C_R   0.838113 0.946259 0.787305 -0.086388
C378  C     C_R   0.161886 0.787305 0.053741 -0.086388
C379  C     C_R   0.838114 0.212696 0.946259 -0.086389
C380  C     C_R   0.161885 0.946259 0.787302 -0.086389
C381  C     C_R   0.838113 0.053741 0.212694 -0.086389
C382  C     C_R   0.838113 0.787307 0.946259 -0.086389
C383  C     C_R   0.161886 0.212694 0.053741 -0.086388
C384  C     C_R   0.838113 0.946259 0.212694 -0.086388
H1    H     H_    0.595790 0.681224 0.818776 0.097875
H2    H     H_    0.404210 0.681224 0.818776 0.097876
H3    H     H_    0.085541 0.319714 0.547614 0.110789
H4    H     H_    0.452215 0.624081 0.124080 0.095322
H5    H     H_    0.547785 0.375920 0.875919 0.095324
H6    H     H_    0.085536 0.680297 0.547614 0.110791
H7    H     H_    0.914462 0.319706 0.452386 0.110792
H8    H     H_    0.547785 0.124080 0.375918 0.095322
H9    H     H_    0.452215 0.875919 0.624081 0.095324
H10   H     H_    0.914462 0.319706 0.547614 0.110792
H11   H     H_    0.085536 0.680297 0.452386 0.110791
H12   H     H_    0.452215 0.375920 0.875919 0.095322
H13   H     H_    0.660237 0.211061 0.595416 0.117019
H14   H     H_    0.547785 0.624081 0.124080 0.095322
H15   H     H_    0.085541 0.319714 0.452386 0.110789
H16   H     H_    0.914474 0.680320 0.547614 0.110799
H17   H     H_    0.914463 0.547614 0.319703 0.110793
H18   H     H_    0.085537 0.452386 0.680297 0.110791
H19   H     H_    0.914467 0.452386 0.680305 0.110794
H20   H     H_    0.085537 0.547614 0.319704 0.110792
H21   H     H_    0.085537 0.452386 0.319704 0.110791
H22   H     H_    0.914467 0.547614 0.680305 0.110795
H23   H     H_    0.085537 0.547614 0.680297 0.110792
H24   H     H_    0.339764 0.788938 0.404584 0.117020
H25   H     H_    0.914463 0.452386 0.319703 0.110792
H26   H     H_    0.047785 0.375920 0.624082 0.095321
H27   H     H_    0.952215 0.624082 0.375920 0.095325
H28   H     H_    0.914465 0.180301 0.952386 0.110794
H29   H     H_    0.085536 0.819702 0.047614 0.110792
H30   H     H_    0.952215 0.124081 0.124081 0.095323
H31   H     H_    0.047785 0.875920 0.875919 0.095323
H32   H     H_    0.085536 0.180297 0.047614 0.110792
H33   H     H_    0.914462 0.819705 0.952386 0.110792
H34   H     H_    0.047785 0.624082 0.375920 0.095322
H35   H     H_    0.404210 0.181223 0.681225 0.097876
H36   H     H_    0.952215 0.375920 0.624082 0.095323
H37   H     H_    0.914462 0.819706 0.047614 0.110791
H38   H     H_    0.085536 0.180297 0.952386 0.110792
H39   H     H_    0.952215 0.875919 0.875919 0.095322
H40   H     H_    0.047785 0.124081 0.124081 0.095322
H41   H     H_    0.085536 0.819702 0.952386 0.110793
H42   H     H_    0.914465 0.180301 0.047614 0.110793
H43   H     H_    0.414463 0.319703 0.952386 0.110792
H44   H     H_    0.585538 0.680295 0.047614 0.110791
H45   H     H_    0.414463 0.047614 0.319703 0.110792
H46   H     H_    0.595790 0.818775 0.318777 0.097876
H47   H     H_    0.585536 0.952386 0.680298 0.110793
H48   H     H_    0.414464 0.680298 0.047614 0.110792
H49   H     H_    0.585535 0.319699 0.952386 0.110794
H50   H     H_    0.414466 0.952386 0.680305 0.110795
H51   H     H_    0.585537 0.047614 0.319703 0.110792
H52   H     H_    0.585538 0.680295 0.952386 0.110792
H53   H     H_    0.414463 0.319703 0.047614 0.110792
H54   H     H_    0.585537 0.952386 0.319703 0.110793
H55   H     H_    0.414467 0.047614 0.680305 0.110794
H56   H     H_    0.585535 0.319699 0.047614 0.110793
H57   H     H_    0.339761 0.211057 0.404584 0.117016
H58   H     H_    0.414464 0.680298 0.952386 0.110793
H59   H     H_    0.585536 0.047614 0.680298 0.110792
H60   H     H_    0.414463 0.952386 0.319703 0.110792
H61   H     H_    0.085533 0.047614 0.819695 0.110794
H62   H     H_    0.914463 0.952386 0.180297 0.110792
H63   H     H_    0.047785 0.624081 0.624081 0.095323
H64   H     H_    0.952215 0.375920 0.375918 0.095321
H65   H     H_    0.914464 0.952386 0.819702 0.110792
H66   H     H_    0.085537 0.047614 0.180297 0.110792
H67   H     H_    0.952215 0.124080 0.875919 0.095323
H68   H     H_    0.660231 0.788926 0.595416 0.117028
H69   H     H_    0.047785 0.875919 0.124081 0.095322
H70   H     H_    0.914463 0.047614 0.180297 0.110792
H71   H     H_    0.085534 0.952386 0.819696 0.110794
H72   H     H_    0.952215 0.875919 0.124081 0.095322
H73   H     H_    0.047785 0.124080 0.875918 0.095323
H74   H     H_    0.085537 0.952386 0.180297 0.110792
H75   H     H_    0.914464 0.047614 0.819702 0.110792
H76   H     H_    0.047785 0.375920 0.375918 0.095320
H77   H     H_    0.952215 0.624081 0.624080 0.095326
H78   H     H_    0.547785 0.375919 0.124081 0.095323
H79   H     H_    0.660237 0.595416 0.211062 0.117020
H80   H     H_    0.452215 0.624081 0.875919 0.095323
H81   H     H_    0.414459 0.180286 0.452386 0.110789
H82   H     H_    0.585526 0.819680 0.547614 0.110799
H83   H     H_    0.452215 0.124080 0.624082 0.095322
H84   H     H_    0.547785 0.875918 0.375920 0.095326
H85   H     H_    0.585537 0.180295 0.547614 0.110792
H86   H     H_    0.414463 0.819702 0.452386 0.110791
H87   H     H_    0.547785 0.624081 0.875919 0.095323
H88   H     H_    0.452215 0.375919 0.124081 0.095322
H89   H     H_    0.414464 0.819702 0.547614 0.110791
H90   H     H_    0.339763 0.404584 0.788938 0.117020
H91   H     H_    0.585537 0.180295 0.452386 0.110792
H92   H     H_    0.452215 0.875918 0.375920 0.095323
H93   H     H_    0.547785 0.124080 0.624082 0.095322
H94   H     H_    0.585526 0.819680 0.452386 0.110798
H95   H     H_    0.414459 0.180286 0.547614 0.110789
H96   H     H_    0.414463 0.547614 0.819703 0.110792
H97   H     H_    0.585537 0.452386 0.180297 0.110792
H98   H     H_    0.414463 0.452386 0.180296 0.110792
H99   H     H_    0.585533 0.547614 0.819695 0.110794
H100  H     H_    0.585533 0.452386 0.819695 0.110794
H101  H     H_    0.660234 0.404584 0.788934 0.117023
H102  H     H_    0.414463 0.547614 0.180296 0.110792
H103  H     H_    0.585537 0.547614 0.180297 0.110792
H104  H     H_    0.414463 0.452386 0.819703 0.110792
H105  H     H_    0.404210 0.318776 0.181224 0.097876
H106  H     H_    0.339763 0.595416 0.211062 0.117020
H107  H     H_    0.339763 0.404584 0.211062 0.117020
H108  H     H_    0.660234 0.595416 0.788934 0.117023
H109  H     H_    0.339763 0.595416 0.788938 0.117020
H110  H     H_    0.660236 0.404584 0.211062 0.117020
H111  H     H_    0.095790 0.181223 0.818775 0.097875
H112  H     H_    0.904210 0.818776 0.181224 0.097875
H113  H     H_    0.660236 0.288936 0.904584 0.117022
H114  H     H_    0.339764 0.711063 0.095416 0.117020
H115  H     H_    0.904210 0.318776 0.318775 0.097875
H116  H     H_    0.660231 0.788926 0.404584 0.117028
H117  H     H_    0.095790 0.681224 0.681224 0.097875
H118  H     H_    0.339764 0.288938 0.095416 0.117020
H119  H     H_    0.660237 0.711061 0.904584 0.117019
H120  H     H_    0.095790 0.818776 0.181224 0.097875
H121  H     H_    0.904210 0.181224 0.818776 0.097875
H122  H     H_    0.660237 0.711061 0.095416 0.117019
H123  H     H_    0.339764 0.288938 0.904584 0.117020
H124  H     H_    0.904210 0.681224 0.681224 0.097875
H125  H     H_    0.095790 0.318776 0.318775 0.097875
H126  H     H_    0.339764 0.711063 0.904584 0.117020
H127  H     H_    0.339761 0.211057 0.595416 0.117016
H128  H     H_    0.660236 0.288936 0.095416 0.117021
H129  H     H_    0.160236 0.211062 0.904584 0.117020
H130  H     H_    0.839763 0.788939 0.095416 0.117019
H131  H     H_    0.160237 0.095416 0.211062 0.117020
H132  H     H_    0.839764 0.904584 0.788937 0.117020
H133  H     H_    0.160236 0.788937 0.095416 0.117020
H134  H     H_    0.839764 0.211064 0.904584 0.117021
H135  H     H_    0.160235 0.904584 0.788934 0.117022
H136  H     H_    0.839763 0.095416 0.211062 0.117020
H137  H     H_    0.839763 0.788939 0.904584 0.117019
H138  H     H_    0.404210 0.818776 0.318776 0.097875
H139  H     H_    0.160236 0.211062 0.095416 0.117020
H140  H     H_    0.839763 0.904584 0.211062 0.117020
H141  H     H_    0.160235 0.095416 0.788934 0.117023
H142  H     H_    0.839764 0.211064 0.095416 0.117021
H143  H     H_    0.160236 0.788937 0.904584 0.117020
H144  H     H_    0.839764 0.095416 0.788937 0.117020
H145  H     H_    0.160237 0.904584 0.211062 0.117020
H146  H     H_    0.339765 0.095416 0.711066 0.117022
H147  H     H_    0.660236 0.904584 0.288938 0.117020
H148  H     H_    0.095790 0.818776 0.818775 0.097876
H149  H     H_    0.595790 0.181224 0.681224 0.097875
H150  H     H_    0.904210 0.181224 0.181224 0.097875
H151  H     H_    0.660236 0.904584 0.711063 0.117021
H152  H     H_    0.339763 0.095416 0.288938 0.117020
H153  H     H_    0.904210 0.318776 0.681225 0.097876
H154  H     H_    0.095790 0.681224 0.318776 0.097875
H155  H     H_    0.660236 0.095416 0.288938 0.117020
H156  H     H_    0.339765 0.904584 0.711066 0.117023
H157  H     H_    0.904210 0.681225 0.318777 0.097875
H158  H     H_    0.095790 0.318777 0.681225 0.097875
H159  H     H_    0.339763 0.904584 0.288938 0.117020
H160  H     H_    0.339764 0.788937 0.595416 0.117020
H161  H     H_    0.660236 0.095416 0.711063 0.117020
H162  H     H_    0.095790 0.181224 0.181224 0.097876
H163  H     H_    0.904210 0.818776 0.818776 0.097875
H164  H     H_    0.595790 0.181224 0.318776 0.097876
H165  H     H_    0.404210 0.818776 0.681224 0.097875
H166  H     H_    0.160239 0.288943 0.404584 0.117016
H167  H     H_    0.839769 0.711074 0.595416 0.117028
H168  H     H_    0.404210 0.318776 0.818776 0.097875
H169  H     H_    0.595790 0.681224 0.181224 0.097875
H170  H     H_    0.839763 0.288939 0.595416 0.117019
H171  H     H_    0.660237 0.211061 0.404584 0.117019
H172  H     H_    0.160236 0.711062 0.404584 0.117020
H173  H     H_    0.595790 0.818775 0.681223 0.097875
H174  H     H_    0.404210 0.181224 0.318775 0.097875
H175  H     H_    0.160236 0.711062 0.595416 0.117020
H176  H     H_    0.839763 0.288939 0.404584 0.117019
H177  H     H_    0.404210 0.681224 0.181224 0.097876
H178  H     H_    0.595790 0.318776 0.818775 0.097876
H179  H     H_    0.839769 0.711074 0.404584 0.117028
H180  H     H_    0.160239 0.288943 0.595416 0.117016
H181  H     H_    0.160236 0.595416 0.711062 0.117020
H182  H     H_    0.595790 0.318776 0.181224 0.097875
H183  H     H_    0.839763 0.404584 0.288938 0.117020
H184  H     H_    0.160237 0.404584 0.288938 0.117019
H185  H     H_    0.839766 0.595416 0.711066 0.117024
H186  H     H_    0.839766 0.404584 0.711066 0.117023
H187  H     H_    0.160237 0.595416 0.288938 0.117020
H188  H     H_    0.839763 0.595416 0.288938 0.117021
H189  H     H_    0.160236 0.404584 0.711062 0.117020
H190  H     H_    0.547785 0.875918 0.624080 0.095326
H191  H     H_    0.452215 0.124080 0.375918 0.095320
H192  H     H_    0.914474 0.680320 0.452386 0.110798
O1    O     O_3   0.750000 0.750000 0.750000 -0.445209
O2    O     O_R   0.280360 0.365810 0.280360 -0.539416
O3    O     O_R   0.780360 0.780360 0.634190 -0.539419
O4    O     O_R   0.219640 0.780360 0.365810 -0.539417
O5    O     O_R   0.780360 0.219640 0.634190 -0.539416
O6    O     O_R   0.780360 0.780360 0.365810 -0.539419
O7    O     O_R   0.219640 0.219640 0.634190 -0.539416
O8    O     O_R   0.719640 0.634190 0.280360 -0.539416
O9    O     O_R   0.280360 0.365810 0.719640 -0.539417
O10   O     O_R   0.280360 0.634190 0.280360 -0.539416
O11   O     O_R   0.719640 0.365810 0.719640 -0.539417
O12   O     O_R   0.280360 0.634190 0.719640 -0.539417
O13   O     O_R   0.719640 0.365810 0.280360 -0.539416
O14   O     O_R   0.634190 0.280360 0.280360 -0.541577
O15   O     O_R   0.365810 0.719640 0.719640 -0.541577
O16   O     O_R   0.634190 0.719640 0.280360 -0.541578
O17   O     O_3   0.250000 0.250000 0.250000 -0.445211
O18   O     O_R   0.365810 0.280360 0.719640 -0.541576
O19   O     O_R   0.634190 0.719640 0.719640 -0.541579
O20   O     O_R   0.365810 0.280360 0.280360 -0.541576
O21   O     O_R   0.634190 0.280360 0.719640 -0.541577
O22   O     O_R   0.365810 0.719640 0.280360 -0.541577
O23   O     O_R   0.280360 0.719640 0.365810 -0.539416
O24   O     O_R   0.719640 0.280360 0.634190 -0.539416
O25   O     O_R   0.719640 0.719640 0.365810 -0.539418
O26   O     O_R   0.280360 0.280360 0.634190 -0.539416
O27   O     O_R   0.719640 0.280360 0.365810 -0.539416
O28   O     O_3   0.750000 0.750000 0.250000 -0.445210
O29   O     O_R   0.280360 0.719640 0.634190 -0.539417
O30   O     O_R   0.280360 0.280360 0.365810 -0.539416
O31   O     O_R   0.719640 0.719640 0.634190 -0.539418
O32   O     O_R   0.219640 0.134190 0.719640 -0.539417
O33   O     O_R   0.780360 0.865810 0.280360 -0.539416
O34   O     O_R   0.719640 0.134190 0.780360 -0.539417
O35   O     O_R   0.280360 0.865810 0.219640 -0.539416
O36   O     O_R   0.780360 0.134190 0.280360 -0.539417
O37   O     O_R   0.219640 0.865810 0.719640 -0.539417
O38   O     O_R   0.280360 0.134190 0.219640 -0.539417
O39   O     O_3   0.250000 0.250000 0.750000 -0.445210
O40   O     O_R   0.719640 0.865810 0.780360 -0.539417
O41   O     O_R   0.219640 0.865810 0.280360 -0.539416
O42   O     O_R   0.780360 0.134190 0.719640 -0.539417
O43   O     O_R   0.719640 0.865810 0.219640 -0.539417
O44   O     O_R   0.280360 0.134190 0.780360 -0.539417
O45   O     O_R   0.780360 0.865810 0.719640 -0.539416
O46   O     O_R   0.219640 0.134190 0.280360 -0.539417
O47   O     O_R   0.280360 0.865810 0.780360 -0.539417
O48   O     O_R   0.719640 0.134190 0.219640 -0.539416
O49   O     O_R   0.134190 0.280360 0.780360 -0.541577
O50   O     O_3   0.250000 0.750000 0.250000 -0.445210
O51   O     O_R   0.865810 0.719640 0.219640 -0.541576
O52   O     O_R   0.134190 0.219640 0.280360 -0.541576
O53   O     O_R   0.865810 0.780360 0.719640 -0.541578
O54   O     O_R   0.134190 0.719640 0.219640 -0.541577
O55   O     O_R   0.865810 0.280360 0.780360 -0.541578
O56   O     O_R   0.134190 0.780360 0.719640 -0.541577
O57   O     O_R   0.865810 0.219640 0.280360 -0.541576
O58   O     O_R   0.865810 0.719640 0.780360 -0.541577
O59   O     O_R   0.134190 0.280360 0.219640 -0.541577
O60   O     O_R   0.865810 0.780360 0.280360 -0.541578
O61   O     O_3   0.750000 0.250000 0.750000 -0.445210
O62   O     O_R   0.134190 0.219640 0.719640 -0.541577
O63   O     O_R   0.865810 0.280360 0.219640 -0.541577
O64   O     O_R   0.134190 0.719640 0.780360 -0.541577
O65   O     O_R   0.865810 0.219640 0.719640 -0.541576
O66   O     O_R   0.134190 0.780360 0.280360 -0.541577
O67   O     O_R   0.280360 0.219640 0.865810 -0.539416
O68   O     O_R   0.719640 0.780360 0.134190 -0.539416
O69   O     O_R   0.219640 0.719640 0.865810 -0.539417
O70   O     O_R   0.780360 0.280360 0.134190 -0.539417
O71   O     O_R   0.719640 0.780360 0.865810 -0.539416
O72   O     O_3   0.250000 0.750000 0.750000 -0.445210
O73   O     O_R   0.280360 0.219640 0.134190 -0.539417
O74   O     O_R   0.780360 0.280360 0.865810 -0.539417
O75   O     O_R   0.219640 0.719640 0.134190 -0.539417
O76   O     O_R   0.719640 0.219640 0.134190 -0.539417
O77   O     O_R   0.280360 0.780360 0.865810 -0.539416
O78   O     O_R   0.780360 0.719640 0.134190 -0.539416
O79   O     O_R   0.219640 0.280360 0.865810 -0.539416
O80   O     O_R   0.280360 0.780360 0.134190 -0.539417
O81   O     O_R   0.719640 0.219640 0.865810 -0.539417
O82   O     O_R   0.219640 0.280360 0.134190 -0.539417
O83   O     O_3   0.750000 0.250000 0.250000 -0.445210
O84   O     O_R   0.780360 0.719640 0.865810 -0.539416
O85   O     O_R   0.219640 0.634190 0.219640 -0.539416
O86   O     O_R   0.780360 0.365810 0.780360 -0.539417
O87   O     O_R   0.219640 0.634190 0.780360 -0.539417
O88   O     O_R   0.780360 0.365810 0.219640 -0.539416
O89   O     O_R   0.780360 0.634190 0.780360 -0.539417
O90   O     O_R   0.219640 0.365810 0.219640 -0.539416
O91   O     O_R   0.780360 0.634190 0.219640 -0.539417
O92   O     O_R   0.219640 0.365810 0.780360 -0.539417
O93   O     O_R   0.634190 0.780360 0.780360 -0.541576
O94   O     O_R   0.719640 0.634190 0.719640 -0.539417
O95   O     O_R   0.365810 0.219640 0.219640 -0.541577
O96   O     O_R   0.634190 0.219640 0.780360 -0.541577
O97   O     O_R   0.365810 0.780360 0.219640 -0.541577
O98   O     O_R   0.634190 0.219640 0.219640 -0.541577
O99   O     O_R   0.365810 0.780360 0.780360 -0.541577
O100  O     O_R   0.634190 0.780360 0.219640 -0.541576
O101  O     O_R   0.365810 0.219640 0.780360 -0.541578
O102  O     O_R   0.780360 0.219640 0.365810 -0.539416
O103  O     O_R   0.219640 0.780360 0.634190 -0.539416
O104  O     O_R   0.219640 0.219640 0.365810 -0.539416
Zn1   Zn    Zn3+2 0.706630 0.793370 0.793370 0.924883
Zn2   Zn    Zn3+2 0.293370 0.793370 0.793370 0.924882
Zn3   Zn    Zn3+2 0.793370 0.206630 0.706630 0.924883
Zn4   Zn    Zn3+2 0.206630 0.793370 0.293370 0.924882
Zn5   Zn    Zn3+2 0.293370 0.206630 0.793370 0.924882
Zn6   Zn    Zn3+2 0.706630 0.793370 0.206630 0.924883
Zn7   Zn    Zn3+2 0.206630 0.206630 0.293370 0.924883
Zn8   Zn    Zn3+2 0.793370 0.793370 0.706630 0.924881
Zn9   Zn    Zn3+2 0.793370 0.706630 0.206630 0.924883
Zn10  Zn    Zn3+2 0.206630 0.293370 0.793370 0.924882
Zn11  Zn    Zn3+2 0.793370 0.293370 0.793370 0.924882
Zn12  Zn    Zn3+2 0.293370 0.206630 0.206630 0.924882
Zn13  Zn    Zn3+2 0.206630 0.706630 0.206630 0.924883
Zn14  Zn    Zn3+2 0.206630 0.293370 0.206630 0.924882
Zn15  Zn    Zn3+2 0.793370 0.706630 0.793370 0.924883
Zn16  Zn    Zn3+2 0.206630 0.706630 0.793370 0.924883
Zn17  Zn    Zn3+2 0.793370 0.293370 0.206630 0.924882
Zn18  Zn    Zn3+2 0.706630 0.293370 0.293370 0.924883
Zn19  Zn    Zn3+2 0.293370 0.706630 0.706630 0.924882
Zn20  Zn    Zn3+2 0.293370 0.293370 0.293370 0.924883
Zn21  Zn    Zn3+2 0.706630 0.706630 0.706630 0.924880
Zn22  Zn    Zn3+2 0.293370 0.293370 0.706630 0.924883
Zn23  Zn    Zn3+2 0.793370 0.793370 0.293370 0.924881
Zn24  Zn    Zn3+2 0.706630 0.706630 0.293370 0.924881
Zn25  Zn    Zn3+2 0.706630 0.293370 0.706630 0.924882
Zn26  Zn    Zn3+2 0.293370 0.706630 0.293370 0.924883
Zn27  Zn    Zn3+2 0.206630 0.206630 0.706630 0.924883
Zn28  Zn    Zn3+2 0.293370 0.793370 0.206630 0.924883
Zn29  Zn    Zn3+2 0.706630 0.206630 0.793370 0.924882
Zn30  Zn    Zn3+2 0.206630 0.793370 0.706630 0.924882
Zn31  Zn    Zn3+2 0.793370 0.206630 0.293370 0.924883
Zn32  Zn    Zn3+2 0.706630 0.206630 0.206630 0.924882

loop_
_geom_bond_atom_site_label_1
_geom_bond_atom_site_label_2
_ccdc_geom_bond_type
C91   C368  A    
C258  C291  A    
C174  C333  A    
C343  H35   S    
O10   Zn26  S    
C97   C375  A    
C82   C94   A    
C200  C359  A    
C239  C249  A    
C11   H150  S    
C225  C237  A    
O83   Zn31  S    
C333  H127  S    
C197  C362  A    
C94   H58   S    
O87   Zn16  S    
C161  C346  A    
C47   C261  A    
C145  H4    S    
C21   H159  S    
C364  H119  S    
C46   C274  S    
C218  C316  A    
C101  C282  S    
C363  O88   A    
C246  O45   A    
C176  C283  A    
O75   Zn13  S    
C158  H18   S    
C337  H171  S    
C18   C125  A    
C78   C356  A    
C43   C264  A    
C81   C95   A    
C312  O55   A    
C105  H33   S    
C98   C114  A    
O78   Zn9   S    
C379  H134  S    
C29   H167  S    
C191  C369  A    
O98   Zn32  S    
C359  H114  S    
C201  C309  S    
C107  H62   S    
C14   H152  S    
C93   H76   S    
C16   C122  A    
C219  C376  A    
C330  O10   A    
O93   Zn1   S    
C128  H60   S    
O41   Zn4   S    
O62   Zn27  S    
C236  C316  A    
C223  O8    A    
C7    H145  S    
C268  O60   A    
C298  C321  S    
O56   Zn30  S    
C191  C198  A    
C198  C305  A    
C36   H174  S    
O14   Zn18  S    
C37   H175  S    
C31   H169  S    
C201  O41   A    
C171  C277  A    
C97   C105  A    
C90   O24   A    
C134  H15   S    
C81   H49   S    
C74   H98   S    
C244  C280  A    
C112  O90   A    
C16   H154  S    
C118  H30   S    
C290  C297  S    
O55   Zn11  S    
C185  C195  A    
C51   C256  A    
C208  C294  A    
C23   C225  A    
C137  C147  A    
O6    Zn23  S    
C4    C208  A    
C261  C285  A    
C146  C269  S    
C178  C285  A    
O61   Zn11  S    
C21   C227  A    
C207  C217  A    
C336  H160  S    
C217  C378  A    
C163  C270  A    
C60   C337  A    
C18   H156  S    
C32   C139  A    
C211  C375  A    
C246  C316  S    
C150  H23   S    
C47   C153  A    
C38   C245  A    
C23   C130  A    
C367  H122  S    
C292  C312  S    
C26   C249  A    
C130  H40   S    
C5    C207  A    
C205  C309  A    
C28   H166  S    
O3    Zn8   S    
C23   H162  S    
O44   Zn5   S    
O72   Zn16  S    
C255  C269  A    
C233  C292  A    
C159  C339  A    
O39   Zn22  S    
C362  H118  S    
C348  H90   S    
C19   C229  A    
C178  C182  A    
C187  C294  A    
C20   C127  A    
C124  O102  A    
C39   H177  S    
O1    Zn21  S    
C319  O92   A    
C256  C264  A    
C244  C252  A    
C154  H19   S    
C321  O79   A    
C28   C134  A    
C95   H56   S    
C363  O13   A    
C307  C328  S    
O50   Zn13  S    
C165  C342  A    
C67   C345  A    
C82   C359  A    
C98   H66   S    
O54   Zn13  S    
C176  C184  A    
C22   H161  S    
C48   C260  A    
C345  H57   S    
C51   C158  A    
C40   C147  A    
C9    C116  A    
C295  C323  S    
C49   C155  A    
C104  C381  A    
C312  O65   A    
O17   Zn12  S    
C37   C247  A    
C179  O33   A    
C114  H74   S    
C330  O85   A    
O96   Zn29  S    
C68   C280  S    
C243  C253  A    
C284  C352  S    
C268  O51   A    
C50   H188  S    
C168  C311  S    
C88   C366  A    
C325  O71   A    
C143  H6    S    
C210  C214  A    
O4    Zn4   S    
C88   H67   S    
C257  O49   A    
C340  H13   S    
C56   C66   A    
C64   C342  A    
C8    C231  A    
O103  Zn30  S    
C16   C232  A    
C33   C250  A    
C108  H61   S    
C230  C313  A    
C17   C221  A    
C52   C329  A    
C235  O38   A    
C308  C327  S    
O46   Zn7   S    
C102  C109  A    
C319  O9    A    
C166  C340  A    
C181  C350  A    
C157  O3    A    
C242  C282  A    
C104  C107  A    
C141  H190  S    
C83   C93   A    
C165  C171  A    
C4    C109  A    
C34   C141  A    
C160  C266  A    
C165  C272  A    
C306  C320  S    
C6    C111  A    
C140  C143  A    
C18   C220  A    
C44   C263  A    
C86   H52   S    
O45   Zn8   S    
C103  H71   S    
C68   O97   A    
O83   Zn17  S    
C133  H9    S    
C54   C69   A    
C187  C202  A    
C209  C215  A    
C369  H124  S    
C383  H139  S    
C229  C300  A    
C190  O42   A    
C72   C349  A    
C195  C356  A    
C332  H116  S    
O30   Zn20  S    
C214  C314  A    
O59   Zn14  S    
C223  O91   A    
C117  H31   S    
C5    C110  A    
C87   H69   S    
O101  Zn5   S    
C69   C346  A    
C323  O77   A    
C226  C236  A    
C109  H42   S    
C127  H26   S    
C55   H95   S    
C139  C144  A    
C189  C370  A    
C186  C293  A    
C101  O6    A    
C36   C142  A    
C2    O15   A    
C232  C293  A    
C53   C61   A    
C43   H181  S    
O57   Zn31  S    
C79   O4    A    
C10   H148  S    
C153  H22   S    
C221  C230  A    
C115  H55   S    
C87   C365  A    
C196  C364  A    
C213  C298  A    
C3    H141  S    
O28   Zn23  S    
C289  C319  S    
C173  C280  A    
C57   C278  S    
C189  C199  A    
C36   C239  A    
C324  O70   A    
C140  H11   S    
O61   Zn29  S    
C136  H16   S    
O18   Zn22  S    
C70   C77   A    
O70   Zn17  S    
C112  O2    A    
C351  H107  S    
O17   Zn14  S    
C72   C75   A    
C106  H32   S    
C74   C351  A    
C256  C289  A    
C100  C378  A    
C192  C298  A    
C227  C309  A    
C120  H45   S    
C183  C289  A    
C180  C351  A    
C72   H100  S    
O94   Zn21  S    
C234  C317  A    
C182  C349  A    
C215  C315  A    
C248  C265  A    
C50   C258  A    
O28   Zn6   S    
C134  C149  A    
O67   Zn5   S    
C9    C230  A    
C35   O93   A    
O81   Zn29  S    
C266  C374  S    
C79   C272  S    
C167  C331  A    
C97   H37   S    
C12   C119  A    
C338  H182  S    
C58   C65   A    
C193  C196  A    
C99   C111  A    
C384  H140  S    
C25   C222  A    
C358  H113  S    
O68   Zn6   S    
C76   H96   S    
C21   C128  A    
C2    C265  S    
C43   C150  A    
C194  C357  A    
C228  C233  A    
C136  C148  A    
C170  C337  A    
C105  C382  A    
C25   H163  S    
C142  H191  S    
O29   Zn19  S    
C64   H86   S    
O58   Zn15  S    
C262  C286  A    
C164  C271  A    
C107  C384  A    
C166  C170  A    
C61   C338  A    
O72   Zn19  S    
C55   C333  A    
C46   O20   A    
C164  C172  A    
C152  H21   S    
C293  C301  S    
C163  C173  A    
O11   Zn25  S    
C34   C240  A    
C179  O43   A    
C372  H128  S    
C349  H101  S    
C48   C154  A    
C205  C219  A    
C305  C318  S    
C220  C231  A    
C171  C336  A    
C144  H7    S    
O72   Zn30  S    
O24   Zn25  S    
C57   O96   A    
C204  C303  A    
O23   Zn26  S    
C304  C326  S    
C51   H189  S    
C122  H34   S    
C2    O99   A    
C71   H104  S    
C48   H186  S    
O80   Zn28  S    
C197  C304  A    
C3    C108  A    
C225  C296  A    
C326  O82   A    
C20   C228  A    
C240  C275  A    
C61   H78   S    
O39   Zn10  S    
C207  C295  A    
C290  O53   A    
C24   O101  A    
C268  C300  S    
C10   C117  A    
C52   C62   A    
C260  C261  A    
C66   C344  A    
C49   C259  A    
C44   H183  S    
C210  C384  A    
C156  H17   S    
C53   C331  A    
C41   C148  A    
C161  C267  A    
O84   Zn15  S    
C46   O95   A    
O90   Zn14  S    
C381  H136  S    
C73   H102  S    
C321  O67   A    
C331  H105  S    
C81   C358  A    
O60   Zn23  S    
C4    H142  S    
C117  C131  A    
C218  C377  A    
C6    C206  A    
C54   H94   S    
C83   C360  A    
O31   Zn21  S    
C6    H144  S    
O36   Zn31  S    
O28   Zn24  S    
O33   Zn23  S    
C257  O62   A    
C59   H89   S    
C60   H91   S    
C111  H75   S    
C90   O5    A    
C32   H170  S    
C35   C275  S    
C84   C92   A    
C121  H36   S    
C76   C354  A    
O8    Zn24  S    
C52   H87   S    
C42   H180  S    
C80   H72   S    
C226  C310  A    
O104  Zn7   S    
O85   Zn13  S    
C3    C209  A    
C162  C269  A    
C100  C110  A    
O2    Zn20  S    
C68   O22   A    
C73   C74   A    
C222  C297  A    
C28   C255  A    
C14   C234  A    
C7    C205  A    
C320  O63   A    
C235  C317  S    
C1    C285  S    
C84   C361  A    
C162  C345  A    
C26   C132  A    
C354  H109  S    
C20   H158  S    
C63   H85   S    
C318  O56   A    
C32   C251  A    
O50   Zn28  S    
C58   C335  A    
C13   O100  A    
C245  C276  A    
C54   C332  A    
O17   Zn7   S    
C199  C306  A    
C327  O81   A    
C82   H48   S    
C121  C127  A    
C53   H88   S    
C203  C383  A    
O26   Zn22  S    
C71   C76   A    
C113  O7    A    
C224  O47   A    
C96   H38   S    
C257  C302  S    
C15   H153  S    
C195  C302  A    
C169  C329  A    
C102  C379  A    
C344  H46   S    
C356  H111  S    
O5    Zn3   S    
O79   Zn10  S    
C157  O31   A    
C42   C149  A    
O102  Zn31  S    
C303  C325  S    
C96   C106  A    
C355  H110  S    
O92   Zn10  S    
C237  C306  A    
C86   C364  A    
C365  H120  S    
O66   Zn4   S    
C45   C152  A    
O64   Zn16  S    
C59   C336  A    
C148  H192  S    
C94   C371  A    
O100  Zn6   S    
C241  C255  A    
C175  C282  A    
C204  C382  A    
C89   C367  A    
O17   Zn20  S    
C38   H176  S    
O34   Zn29  S    
C132  H8    S    
C80   C357  A    
C221  C314  A    
C75   H99   S    
O49   Zn10  S    
C245  C251  A    
C30   C137  A    
C160  C338  A    
C357  H112  S    
O16   Zn24  S    
O83   Zn32  S    
O39   Zn27  S    
O50   Zn26  S    
C167  C274  A    
C79   O23   A    
C186  C194  A    
C216  C308  A    
C93   C370  A    
C174  C281  A    
C366  H121  S    
C146  O30   A    
C254  C267  A    
C220  C315  A    
C42   C241  A    
C65   H83   S    
O82   Zn14  S    
C17   H155  S    
C110  H41   S    
C201  O35   A    
O88   Zn17  S    
C287  C330  S    
C380  H135  S    
C177  C183  A    
O35   Zn28  S    
C184  C347  A    
C139  H10   S    
O97   Zn28  S    
O1    Zn1   S    
C187  C372  A    
C27   C133  A    
C301  O54   A    
C247  C277  A    
C116  C123  A    
O50   Zn4   S    
C62   C339  A    
C118  C130  A    
C342  H24   S    
C47   H185  S    
C373  H129  S    
O69   Zn16  S    
C55   C67   A    
C70   C347  A    
C152  C155  A    
O61   Zn25  S    
C202  C358  A    
C124  O27   A    
C30   H168  S    
C34   H173  S    
C29   C254  A    
C31   C138  A    
C73   C350  A    
C184  C291  A    
C361  H117  S    
O12   Zn19  S    
C193  C299  A    
C216  C379  A    
C22   C226  A    
C194  C300  A    
O27   Zn18  S    
C352  O12   A    
C14   C120  A    
C164  C343  A    
C228  C302  A    
C264  C284  A    
C11   C237  A    
C341  O11   A    
C320  O57   A    
C180  C181  A    
C368  H123  S    
C78   C88   A    
C227  C234  A    
C341  O86   A    
C92   H77   S    
C150  C158  A    
C279  O52   A    
C135  C277  S    
C33   H172  S    
C38   C144  A    
C100  H29   S    
O19   Zn21  S    
C328  O75   A    
C350  H106  S    
C246  O40   A    
C86   C89   A    
C224  C315  S    
C347  H79   S    
C120  C128  A    
C378  H133  S    
C229  C232  A    
C360  H115  S    
C163  C344  A    
C19   C126  A    
C133  C141  A    
C185  C366  A    
C49   H187  S    
C99   C377  A    
O47   Zn2   S    
O76   Zn32  S    
C131  H39   S    
C301  O66   A    
C27   C248  A    
C252  C270  A    
C212  O48   A    
O73   Zn12  S    
C253  C271  A    
C299  C322  S    
C135  O29   A    
C204  C211  A    
C62   H80   S    
O77   Zn2   S    
O63   Zn17  S    
C58   H93   S    
C31   C252  A    
C65   C343  A    
C327  O74   A    
O71   Zn1   S    
C180  C286  A    
O61   Zn3   S    
C137  H12   S    
C181  C287  A    
C40   C243  A    
C191  C297  A    
C377  H132  S    
C182  C288  A    
C83   H64   S    
C29   C136  A    
C346  H68   S    
C260  C288  A    
C290  O58   A    
C22   C129  A    
C240  C248  A    
C176  C355  A    
C135  O103  A    
C149  H3    S    
C7    C114  A    
C106  C383  A    
O48   Zn32  S    
C172  C278  A    
O91   Zn9   S    
C113  C281  S    
O86   Zn11  S    
C223  C291  S    
O38   Zn12  S    
O42   Zn3   S    
C192  C368  A    
C212  C314  S    
C258  C263  A    
C169  C275  A    
C250  C272  A    
O95   Zn12  S    
C168  O44   A    
C259  C262  A    
C170  C276  A    
C203  C304  A    
C85   C91   A    
C138  C145  A    
C224  O37   A    
C27   H165  S    
C12   H151  S    
C59   C64   A    
O15   Zn19  S    
C168  O32   A    
C60   C63   A    
C179  C313  S    
C334  H138  S    
C1    O94   A    
C80   C87   A    
C129  H59   S    
C161  C175  A    
C175  C332  A    
C324  O76   A    
C147  H5    S    
C103  C380  A    
C33   C140  A    
C66   H84   S    
C279  C296  S    
C212  O36   A    
C102  H28   S    
O39   Zn5   S    
C263  C283  A    
O72   Zn2   S    
C160  C167  A    
C328  O80   A    
O99   Zn2   S    
C374  O98   A    
C188  C371  A    
C85   H53   S    
C177  C284  A    
C8    C115  A    
C119  C129  A    
C104  H70   S    
C9    H147  S    
O32   Zn27  S    
O89   Zn15  S    
C45   H184  S    
C50   C156  A    
C199  C360  A    
C206  C218  A    
C382  H137  S    
C98   C376  A    
C103  C108  A    
C322  O78   A    
C283  C363  S    
C186  C365  A    
C85   C362  A    
C99   H65   S    
C101  O25   A    
O9    Zn22  S    
C188  C200  A    
C91   H43   S    
C63   C340  A    
C189  C296  A    
C13   O16   A    
C208  C216  A    
O13   Zn18  S    
C159  C169  A    
C39   C145  A    
C185  C292  A    
C112  C286  S    
O74   Zn11  S    
C243  C278  A    
C374  O14   A    
C196  C303  A    
C17   C123  A    
C77   C355  A    
C151  H25   S    
O83   Zn18  S    
C132  C142  A    
C215  C380  A    
C157  C267  S    
C67   H81   S    
C329  H1    S    
C30   C253  A    
C44   C151  A    
C24   C271  S    
O65   Zn3   S    
C113  O26   A    
C202  C308  A    
O28   Zn9   S    
C125  H50   S    
C325  O84   A    
C35   O19   A    
O37   Zn30  S    
C193  C367  A    
C69   H82   S    
C238  C305  A    
C177  C354  A    
C192  C197  A    
C353  H108  S    
C222  C238  A    
C56   H92   S    
C8    H146  S    
C214  C381  A    
C249  C266  A    
C122  C126  A    
C259  C287  A    
C166  C273  A    
C77   H97   S    
C173  C334  A    
C190  C310  S    
C219  C317  A    
C339  H2    S    
O7    Zn27  S    
C78   H73   S    
C335  H149  S    
C15   C233  A    
C326  O73   A    
O51   Zn9   S    
C1    O89   A    
C37   C143  A    
O53   Zn8   S    
C26   H164  S    
C323  O69   A    
C294  C324  S    
C10   C238  A    
C95   C372  A    
C203  C213  A    
C242  C254  A    
C231  C311  A    
C239  C274  A    
C209  C311  A    
C25   C131  A    
C75   C353  A    
C56   C334  A    
C84   H63   S    
C39   C244  A    
O1    Zn15  S    
C116  H54   S    
C12   C236  A    
C370  H125  S    
C146  O104  A    
C235  O46   A    
C15   C121  A    
O52   Zn7   S    
C119  H47   S    
C89   H44   S    
C19   H157  S    
C71   C348  A    
C251  C273  A    
C241  C281  A    
C211  C299  A    
C279  O59   A    
C183  C348  A    
C162  C174  A    
O43   Zn6   S    
C159  C265  A    
C376  H131  S    
C92   C369  A    
C115  C125  A    
C41   C242  A    
C126  H27   S    
C70   H103  S    
O1    Zn8   S    
C13   C270  S    
O22   Zn26  S    
C213  C373  A    
C11   C118  A    
O21   Zn25  S    
C45   C262  A    
C371  H126  S    
C40   H178  S    
C288  C341  S    
O25   Zn24  S    
C57   O21   A    
C90   C273  S    
C322  O68   A    
C217  C307  A    
C124  C276  S    
C5    H143  S    
C188  C295  A    
O20   Zn20  S    
C210  C313  A    
C318  O64   A    
C151  C156  A    
C96   C373  A    
C375  H130  S    
C123  H51   S    
C138  H14   S    
C24   O18   A    
C155  H20   S    
C178  C353  A    
C200  C307  A    
C153  C154  A    
C190  O34   A    
C352  O87   A    
C41   H179  S    
C172  C335  A    
C247  C250  A    
O40   Zn1   S    
C206  C310  A    
C198  C361  A    
