data_mof_unit_2756.cif
_audit_creation_date              2012-12-11T21:06:20-0500
_audit_creation_method            fapswitch 2.2
_symmetry_space_group_name_H-M    P1
_symmetry_Int_Tables_number       1
_space_group_crystal_system       triclinic
_cell_length_a                    36.425894
_cell_length_b                    39.500738
_cell_length_c                    8.446669
_cell_angle_alpha                 90.110511
_cell_angle_beta                  93.831785
_cell_angle_gamma                 90.077732
_cell_volume                      12126.2825964

loop_
_atom_site_label
_atom_site_type_symbol
_atom_type_description
_atom_site_fract_x
_atom_site_fract_y
_atom_site_fract_z
_atom_type_partial_charge
Ba1   Ba    Ba6+2 0.000060 0.523150 0.844950 1.699550
Ba2   Ba    Ba6+2 0.000060 0.476850 0.344950 1.695968
Ba3   Ba    Ba6+2 0.500060 0.023150 0.844950 1.732070
Ba4   Ba    Ba6+2 0.500060 0.976850 0.344950 1.704131
C1    C     C_3   0.977383 0.678422 0.598980 -0.301046
C2    C     C_2   0.903640 0.630971 0.273990 -0.089890
C3    C     C_R   0.631176 0.811246 0.726526 0.590724
C4    C     C_2   0.108622 0.621212 0.447761 -0.053913
C5    C     C_2   0.089236 0.364931 0.890112 -0.044623
C6    C     C_2   0.594243 0.132267 0.404798 -0.056149
C7    C     C_2   0.592234 0.866939 0.900039 -0.052845
C8    C     C_3   0.083022 0.592356 0.486351 -0.050375
C9    C     C_3   0.058452 0.389821 0.915697 -0.103213
C10   C     C_3   0.561885 0.108745 0.421619 -0.102972
C11   C     C_3   0.560697 0.891065 0.920510 -0.093495
C12   C     C_1   0.083844 0.574585 0.211736 -0.008448
C13   C     C_2   0.409408 0.865258 0.796654 -0.082791
C14   C     C_1   0.082510 0.424898 0.709498 0.003516
C15   C     C_1   0.585715 0.073596 0.216419 -0.027456
C16   C     C_1   0.584437 0.925934 0.714224 -0.014115
C17   C     C_2   0.108305 0.597903 0.177108 -0.049647
C18   C     C_2   0.102850 0.399448 0.660213 -0.118324
C19   C     C_2   0.608427 0.097884 0.174277 -0.042272
C20   C     C_2   0.605579 0.900843 0.667659 -0.106392
C21   C     C_2   0.121772 0.623164 0.301225 0.240780
C22   C     C_2   0.109530 0.368728 0.762449 0.239576
C23   C     C_2   0.615232 0.128449 0.279109 0.252683
C24   C     C_2   0.406817 0.133642 0.289262 -0.088612
C25   C     C_2   0.612395 0.870313 0.771727 0.236654
C26   C     C_R   0.741905 0.284223 0.072693 0.036161
C27   C     C_R   0.739513 0.713568 0.586121 0.034862
C28   C     C_R   0.245054 0.781637 0.101421 0.034890
C29   C     C_R   0.237015 0.214244 0.543224 0.035754
C30   C     C_R   0.779056 0.273859 0.062334 0.046366
C31   C     C_R   0.775147 0.724665 0.549672 0.044440
C32   C     C_R   0.281631 0.771433 0.075750 0.046754
C33   C     C_R   0.274768 0.223931 0.553510 0.046667
C34   C     C_R   0.789032 0.239492 0.088834 -0.036871
C35   C     C_3   0.943596 0.386751 0.775620 -0.094675
C36   C     C_R   0.783721 0.759757 0.550888 -0.038365
C37   C     C_R   0.291610 0.736785 0.088825 -0.037029
C38   C     C_R   0.284996 0.257466 0.598971 -0.036555
C39   C     C_3   0.894415 0.521882 0.142023 0.297674
C40   C     C_3   0.895786 0.478087 0.652628 0.295137
C41   C     C_3   0.395863 0.022525 0.141256 0.286807
C42   C     C_3   0.393281 0.980331 0.669305 0.300852
C43   C     C_R   0.733000 0.318386 0.037964 -0.099432
C44   C     C_R   0.732836 0.678279 0.589721 -0.099642
C45   C     C_R   0.235863 0.816130 0.078073 -0.099681
C46   C     C_3   0.938386 0.610833 0.260801 -0.070833
C47   C     C_R   0.228251 0.180691 0.494773 -0.098304
C48   C     C_R   0.853453 0.254390 0.050982 0.439879
C49   C     C_R   0.844992 0.746165 0.463113 0.440997
C50   C     C_R   0.355208 0.752189 0.037743 0.440390
C51   C     C_R   0.350019 0.242163 0.577772 0.440617
C52   C     C_R   0.271644 0.676739 0.112200 -0.101961
C53   C     C_R   0.265799 0.316207 0.664724 -0.099695
C54   C     C_R   0.769142 0.179880 0.129277 -0.100902
C55   C     C_R   0.765215 0.818847 0.611715 -0.102202
C56   C     C_R   0.245160 0.652806 0.145628 -0.048725
C57   C     C_3   0.442665 0.887426 0.775139 -0.064687
C58   C     C_R   0.238691 0.339538 0.697419 -0.058132
C59   C     C_R   0.742211 0.156400 0.162879 -0.048381
C60   C     C_R   0.738684 0.842207 0.650106 -0.060189
C61   C     C_R   0.826600 0.230829 0.087065 -0.150883
C62   C     C_R   0.818742 0.769648 0.505292 -0.150315
C63   C     C_R   0.328835 0.728164 0.074224 -0.151691
C64   C     C_R   0.322905 0.265406 0.614338 -0.151016
C65   C     C_3   0.860513 0.544344 0.125143 -0.344718
C66   C     C_3   0.862279 0.454973 0.642992 -0.327165
C67   C     C_3   0.362028 0.045118 0.134013 -0.338110
C68   C     C_3   0.441082 0.112578 0.271461 -0.108813
C69   C     C_3   0.360129 0.956830 0.651662 -0.325196
C70   C     C_3   0.128048 0.497254 0.229919 0.226441
C71   C     C_3   0.136835 0.489078 0.737085 0.143185
C72   C     C_3   0.628969 0.997957 0.228461 0.234569
C73   C     C_3   0.633849 0.995893 0.730173 0.147072
C74   C     C_3   0.161320 0.519952 0.273343 -0.362770
C75   C     C_3   0.168444 0.465620 0.697647 -0.303320
C76   C     C_3   0.663425 0.020001 0.255188 -0.371141
C77   C     C_3   0.667812 0.973970 0.710876 -0.341569
C78   C     C_3   0.993263 0.642898 0.603634 0.325547
C79   C     C_1   0.920445 0.424134 0.981567 0.028601
C80   C     C_3   0.002079 0.343455 0.097197 0.280238
C81   C     C_3   0.506017 0.157810 0.565202 0.278867
C82   C     C_3   0.499700 0.845401 0.083476 0.295977
C83   C     C_R   0.823684 0.356009 0.957756 0.592351
C84   C     C_R   0.821757 0.641589 0.478452 0.593631
C85   C     C_R   0.324765 0.854628 0.976389 0.592923
C86   C     C_R   0.320138 0.142726 0.437589 0.591373
C87   C     C_2   0.140665 0.460938 0.220316 0.918763
C88   C     C_2   0.153053 0.522782 0.793969 0.930317
C89   C     C_2   0.640452 0.961277 0.228131 0.910774
C90   C     C_1   0.918581 0.575196 0.476850 0.029159
C91   C     C_2   0.646372 0.031994 0.764541 0.941198
C92   C     C_3   0.895731 0.227705 0.909873 0.237853
C93   C     C_3   0.875503 0.767371 0.259834 0.242484
C94   C     C_3   0.394791 0.727290 0.877105 0.240219
C95   C     C_3   0.395548 0.271078 0.466183 0.226817
C96   C     C_2   0.048686 0.682201 0.979351 0.941896
C97   C     C_2   0.008643 0.284114 0.670625 0.891923
C98   C     C_2   0.547373 0.182349 0.987228 0.987214
C99   C     C_2   0.525151 0.788947 0.515239 0.863611
C100  C     C_1   0.420017 0.923973 0.984024 0.017460
C101  C     C_3   0.991610 0.307946 0.147613 -0.235582
C102  C     C_1   0.418982 0.075321 0.478464 0.036811
C103  C     C_2   0.894662 0.402048 0.015683 -0.090029
C104  C     C_2   0.894144 0.598392 0.515210 -0.099841
C105  C     C_2   0.394696 0.901554 0.019773 -0.091034
C106  C     C_2   0.392562 0.096929 0.511357 -0.086242
C107  C     C_2   0.887894 0.371103 0.915463 0.217146
C108  C     C_2   0.884396 0.627410 0.404815 0.203385
C109  C     C_2   0.388083 0.870466 0.919938 0.210005
C110  C     C_2   0.385066 0.127584 0.410106 0.229857
C111  C     C_R   0.806492 0.298163 0.026069 -0.135999
C112  C     C_3   0.487139 0.189624 0.619611 -0.284784
C113  C     C_R   0.802501 0.700411 0.512159 -0.136830
C114  C     C_R   0.308484 0.796148 0.037479 -0.135858
C115  C     C_R   0.302561 0.199759 0.518916 -0.135336
C116  C     C_R   0.796589 0.332175 0.995010 -0.016273
C117  C     C_R   0.794627 0.665435 0.515301 -0.017332
C118  C     C_R   0.298349 0.830420 0.017247 -0.016291
C119  C     C_R   0.292643 0.166435 0.472506 -0.016908
C120  C     C_R   0.759689 0.341696 0.000124 -0.054324
C121  C     C_R   0.759710 0.654893 0.555043 -0.055149
C122  C     C_R   0.261848 0.839832 0.036496 -0.053781
C123  C     C_3   0.509160 0.810979 0.016119 -0.325209
C124  C     C_R   0.255367 0.157473 0.460632 -0.053836
C125  C     C_R   0.843763 0.288538 0.021420 -0.089483
C126  C     C_R   0.837646 0.711100 0.471353 -0.089536
C127  C     C_R   0.345407 0.786658 0.020068 -0.090395
C128  C     C_R   0.340213 0.208817 0.531114 -0.090008
C129  C     C_3   0.996654 0.658095 0.127572 0.236591
C130  C     C_3   0.995056 0.341705 0.557564 0.268347
C131  C     C_3   0.489584 0.162817 0.113330 0.277552
C132  C     C_3   0.490490 0.843432 0.528821 0.294079
C133  C     C_2   0.943798 0.419233 0.869791 -0.268864
C134  C     C_R   0.870359 0.313364 0.987859 0.610119
C135  C     C_2   0.939141 0.578364 0.353771 -0.280696
C136  C     C_2   0.443224 0.919405 0.871887 -0.262392
C137  C     C_2   0.441758 0.080082 0.364402 -0.267746
C138  C     C_2   0.064311 0.577784 0.336806 -0.241255
C139  C     C_2   0.066008 0.423746 0.843848 -0.158962
C140  C     C_2   0.568726 0.074718 0.349629 -0.218513
C141  C     C_2   0.568204 0.925037 0.849325 -0.166399
C142  C     C_R   0.218901 0.757165 0.148247 0.018396
C143  C     C_R   0.209397 0.238206 0.581199 0.017356
C144  C     C_R   0.714938 0.260260 0.116420 0.018158
C145  C     C_R   0.864437 0.686498 0.438385 0.598167
C146  C     C_R   0.711925 0.737904 0.618529 0.018493
C147  C     C_R   0.264352 0.711903 0.117946 0.036868
C148  C     C_R   0.257282 0.281884 0.629225 0.038389
C149  C     C_R   0.761413 0.214964 0.118182 0.037930
C150  C     C_R   0.757069 0.783884 0.595327 0.037369
C151  C     C_R   0.228393 0.722280 0.152075 0.055496
C152  C     C_R   0.219656 0.272016 0.622379 0.053976
C153  C     C_R   0.724658 0.225593 0.135595 0.054242
C154  C     C_R   0.721044 0.772916 0.625572 0.053654
C155  C     C_R   0.183457 0.766324 0.192844 -0.097622
C156  C     C_R   0.371555 0.811923 0.986172 0.609413
C157  C     C_R   0.171595 0.229594 0.580016 -0.100056
C158  C     C_R   0.678403 0.269762 0.143170 -0.102028
C159  C     C_R   0.675225 0.728529 0.643601 -0.100127
C160  C     C_R   0.157988 0.742071 0.234362 -0.054074
C161  C     C_R   0.144992 0.253287 0.615207 -0.046362
C162  C     C_R   0.652249 0.246024 0.182383 -0.044089
C163  C     C_R   0.648895 0.752457 0.678522 -0.064774
C164  C     C_R   0.166475 0.707503 0.232394 -0.042957
C165  C     C_R   0.154626 0.286776 0.653509 -0.033491
C166  C     C_R   0.661153 0.211643 0.196613 -0.034236
C167  C     C_R   0.367063 0.184268 0.496448 0.612466
C168  C     C_R   0.657780 0.786908 0.690038 -0.036665
C169  C     C_R   0.201658 0.697499 0.190349 -0.083843
C170  C     C_R   0.191980 0.296258 0.657010 -0.083087
C171  C     C_R   0.697332 0.201291 0.172727 -0.086709
C172  C     C_R   0.693850 0.797250 0.663359 -0.079533
C173  C     C_R   0.210144 0.662717 0.186698 -0.033159
C174  C     C_R   0.201657 0.330003 0.695201 -0.035498
C175  C     C_R   0.706218 0.166667 0.186499 -0.032059
C176  C     C_R   0.702768 0.831928 0.674941 -0.034319
C177  C     C_3   0.017463 0.689886 0.081111 -0.194992
C178  C     C_2   0.909667 0.365328 0.794544 -0.085122
C179  C     C_3   0.979322 0.310113 0.633824 -0.267141
C180  C     C_3   0.511748 0.192623 0.053889 -0.171093
C181  C     C_3   0.488621 0.805936 0.483556 -0.195265
C182  C     C_R   0.183378 0.638490 0.223274 0.598901
C183  C     C_R   0.174113 0.353618 0.730218 0.597148
C184  C     C_R   0.678905 0.142926 0.222886 0.604239
C185  C     C_R   0.675716 0.855683 0.712825 0.599317
C186  C     C_R   0.140506 0.682727 0.271907 0.633547
C187  C     C_R   0.127625 0.310979 0.688417 0.596748
C188  C     C_R   0.634515 0.187461 0.234615 0.601432
H1    H     H_    0.983522 0.629970 0.709647 0.105118
H2    H     H_    0.869404 0.430116 0.697267 0.078905
H3    H     H_    0.465125 0.063495 0.352282 0.072582
H4    H     H_    0.034779 0.573499 0.326997 0.052866
H5    H     H_    0.059866 0.446825 0.907249 0.068921
H6    H     H_    0.563886 0.051758 0.415988 0.058792
H7    H     H_    0.563726 0.948100 0.915805 0.074327
H8    H     H_    0.016582 0.639330 0.181613 0.026922
H9    H     H_    0.016410 0.333940 0.477323 0.126293
H10   H     H_    0.507899 0.147169 0.194786 -0.026958
H11   H     H_    0.515837 0.855299 0.487804 0.092366
H12   H     H_    0.977699 0.666092 0.218393 0.008693
H13   H     H_    0.369651 0.070970 0.175571 0.079174
H14   H     H_    0.009712 0.357844 0.650068 -0.058039
H15   H     H_    0.467263 0.173650 0.181222 -0.018274
H16   H     H_    0.491791 0.844800 0.660844 -0.091353
H17   H     H_    0.998035 0.707848 0.018678 0.077985
H18   H     H_    0.957660 0.298495 0.552091 0.091297
H19   H     H_    0.494625 0.206632 0.962357 0.058345
H20   H     H_    0.480066 0.802953 0.355849 0.083252
H21   H     H_    0.902834 0.519064 0.269506 0.015068
H22   H     H_    0.904493 0.482431 0.778721 0.013232
H23   H     H_    0.406812 0.020403 0.266051 0.014042
H24   H     H_    0.365637 0.933321 0.720596 0.076796
H25   H     H_    0.397486 0.987861 0.794905 0.026687
H26   H     H_    0.916694 0.534170 0.079057 0.064996
H27   H     H_    0.918273 0.465586 0.592382 0.073914
H28   H     H_    0.416764 0.034322 0.068958 0.073167
H29   H     H_    0.417957 0.966811 0.632177 0.052351
H30   H     H_    0.164974 0.421072 0.332611 0.315700
H31   H     H_    0.114207 0.551014 0.677725 0.278689
H32   H     H_    0.663796 0.922266 0.350814 0.316764
H33   H     H_    0.631021 0.050504 0.544791 0.265973
H34   H     H_    0.925316 0.221123 0.909211 0.086826
H35   H     H_    0.851331 0.547156 0.997784 0.132286
H36   H     H_    0.889046 0.244650 0.806702 0.028659
H37   H     H_    0.879710 0.203750 0.896571 -0.002622
H38   H     H_    0.866265 0.745660 0.182699 0.027273
H39   H     H_    0.902975 0.775308 0.224148 0.079375
H40   H     H_    0.856525 0.789216 0.239604 -0.005479
H41   H     H_    0.424102 0.720680 0.866162 0.087108
H42   H     H_    0.386732 0.745503 0.780448 0.027840
H43   H     H_    0.378442 0.703558 0.861830 -0.002865
H44   H     H_    0.390236 0.256634 0.353550 0.031685
H45   H     H_    0.425376 0.277021 0.478430 0.073382
H46   H     H_    0.852535 0.450875 0.516980 0.137844
H47   H     H_    0.380383 0.295518 0.460225 -0.000268
H48   H     H_    0.074553 0.693221 0.782142 0.331379
H49   H     H_    0.043960 0.250455 0.585336 0.328433
H50   H     H_    0.591637 0.197246 0.874138 0.309144
H51   H     H_    0.577284 0.783645 0.451963 0.326384
H52   H     H_    0.349985 0.046723 0.009932 0.129731
H53   H     H_    0.354181 0.950040 0.524877 0.147649
H54   H     H_    0.108491 0.499369 0.323196 0.047475
H55   H     H_    0.122918 0.477900 0.837020 0.061351
H56   H     H_    0.610801 0.002025 0.324990 0.035172
H57   H     H_    0.977251 0.359874 0.094706 0.045161
H58   H     H_    0.619674 0.986223 0.832016 0.071108
H59   H     H_    0.183233 0.515987 0.190184 0.177472
H60   H     H_    0.186021 0.477688 0.611410 0.130383
H61   H     H_    0.683725 0.013864 0.167048 0.163101
H62   H     H_    0.684480 0.984186 0.616590 0.131982
H63   H     H_    0.172760 0.514252 0.395271 0.106020
H64   H     H_    0.185799 0.459537 0.807061 0.149127
H65   H     H_    0.676529 0.015683 0.375756 0.099573
H66   H     H_    0.685176 0.973181 0.824087 0.122431
H67   H     H_    0.153360 0.546924 0.270551 0.125434
H68   H     H_    0.484433 0.139732 0.519303 -0.002080
H69   H     H_    0.157849 0.441534 0.647597 0.167369
H70   H     H_    0.656429 0.047151 0.245132 0.144028
H71   H     H_    0.659617 0.947768 0.679567 0.181326
H72   H     H_    0.982987 0.629344 0.495155 -0.050054
H73   H     H_    0.011761 0.341283 0.975521 -0.016951
H74   H     H_    0.523688 0.165289 0.468828 -0.019319
H75   H     H_    0.493398 0.862840 0.982462 -0.066452
H76   H     H_    0.947018 0.676772 0.597992 0.122096
H77   H     H_    0.973492 0.295932 0.052726 0.151884
H78   H     H_    0.472092 0.201855 0.516395 0.114117
H79   H     H_    0.474019 0.843107 0.146207 0.099301
H80   H     H_    0.485895 0.801746 0.935714 0.123719
H81   H     H_    0.987326 0.692842 0.706054 0.162649
H82   H     H_    0.976614 0.308839 0.257374 0.136201
H83   H     H_    0.467285 0.183121 0.708976 0.168302
H84   H     H_    0.514478 0.792421 0.113425 0.151297
H85   H     H_    0.029023 0.702499 0.191189 0.062333
H86   H     H_    0.966517 0.317452 0.744409 0.052480
H87   H     H_    0.518332 0.210286 0.154365 0.031989
H88   H     H_    0.467423 0.793350 0.552049 0.070734
H89   H     H_    0.878606 0.405967 0.117953 0.106719
H90   H     H_    0.837915 0.533007 0.189504 0.138467
H91   H     H_    0.881071 0.596511 0.626642 0.118614
H92   H     H_    0.379260 0.905135 0.124138 0.112590
H93   H     H_    0.376271 0.092677 0.612574 0.096137
H94   H     H_    0.751151 0.367501 0.974777 0.122796
H95   H     H_    0.752909 0.628216 0.559896 0.123081
H96   H     H_    0.253102 0.865866 0.019842 0.123014
H97   H     H_    0.246842 0.132181 0.424233 0.122487
H98   H     H_    0.118692 0.638434 0.541212 0.098283
H99   H     H_    0.092955 0.342910 0.966203 0.092979
H100  H     H_    0.598297 0.153723 0.484604 0.097462
H101  H     H_    0.839824 0.466549 0.707380 0.134759
H102  H     H_    0.596471 0.845599 0.979952 0.102231
H103  H     H_    0.131323 0.750629 0.267720 0.122902
H104  H     H_    0.116550 0.245113 0.612318 0.118474
H105  H     H_    0.624731 0.254850 0.201423 0.131321
H106  H     H_    0.621262 0.743727 0.696420 0.140496
H107  H     H_    0.174685 0.792263 0.200577 0.072402
H108  H     H_    0.161376 0.204502 0.553773 0.072196
H109  H     H_    0.669094 0.295609 0.137968 0.072379
H110  H     H_    0.665552 0.702798 0.634695 0.075312
H111  H     H_    0.705340 0.328004 0.035929 0.070588
H112  H     H_    0.341177 0.034679 0.210790 0.141248
H113  H     H_    0.707153 0.667626 0.621628 0.070827
H114  H     H_    0.208404 0.825651 0.087421 0.071091
H115  H     H_    0.200467 0.171367 0.480254 0.070178
H116  H     H_    0.905152 0.343053 0.720274 0.086749
H117  H     H_    0.897269 0.651211 0.189873 0.103439
H118  H     H_    0.405338 0.842903 0.722527 0.093485
H119  H     H_    0.402254 0.156005 0.216117 0.079948
H120  H     H_    0.297425 0.666689 0.077953 0.072297
H121  H     H_    0.293263 0.326300 0.666102 0.069376
H122  H     H_    0.795712 0.169427 0.109133 0.071046
H123  H     H_    0.335666 0.969534 0.696293 0.126761
H124  H     H_    0.792168 0.829217 0.598646 0.072740
H125  H     H_    0.985286 0.691953 0.491276 0.131455
H126  H     H_    0.016680 0.292170 0.168408 0.152692
H127  H     H_    0.507882 0.207787 0.671726 0.123630
H128  H     H_    0.534009 0.813074 0.947519 0.139484
H129  H     H_    0.252358 0.626253 0.139200 0.132928
H130  H     H_    0.247003 0.365384 0.724253 0.125153
H131  H     H_    0.749820 0.129909 0.170095 0.129920
H132  H     H_    0.746576 0.868623 0.660447 0.126335
H133  H     H_    0.118830 0.598676 0.059971 0.148577
H134  H     H_    0.866927 0.569762 0.175345 0.072655
H135  H     H_    0.115324 0.400917 0.547334 0.113850
H136  H     H_    0.622905 0.095290 0.066671 0.138912
H137  H     H_    0.618713 0.902606 0.556460 0.123445
H138  H     H_    0.836555 0.205840 0.116853 0.089238
H139  H     H_    0.826764 0.795769 0.497031 0.088287
H140  H     H_    0.338894 0.702806 0.094452 0.089779
H141  H     H_    0.332950 0.289575 0.657307 0.087200
H142  H     H_    0.967049 0.436048 0.858576 0.076635
H143  H     H_    0.961596 0.561020 0.336514 0.075984
H144  H     H_    0.466904 0.935806 0.862808 0.075206
N1    N     N_R   0.860073 0.346436 0.953818 -0.431278
N2    N     N_R   0.856340 0.652172 0.441098 -0.430370
N3    N     N_R   0.360914 0.845262 0.960688 -0.431219
N4    N     N_R   0.356841 0.151882 0.448445 -0.432198
N5    N     N_R   0.148986 0.648598 0.265420 -0.423785
N6    N     N_R   0.137516 0.344011 0.726513 -0.430695
N7    N     N_R   0.643340 0.153351 0.245600 -0.428123
N8    N     N_R   0.640186 0.845332 0.736630 -0.426370
O1    O     O_2   0.072110 0.546320 0.923350 -0.437555
O2    O     O_3   0.967038 0.358489 0.464194 -0.576368
O3    O     O_3   0.474098 0.143576 0.984638 -0.555155
O4    O     O_3   0.459539 0.859984 0.456025 -0.586775
O5    O     O_3   0.958050 0.483830 0.034350 -0.498204
O6    O     O_3   0.958050 0.516170 0.534350 -0.493063
O7    O     O_3   0.458050 0.983830 0.034350 -0.504371
O8    O     O_3   0.458050 0.016170 0.534350 -0.487874
O9    O     O_2   0.814818 0.385242 0.927441 -0.595560
O10   O     O_2   0.814385 0.611390 0.477737 -0.595300
O11   O     O_2   0.315472 0.884030 0.953476 -0.595550
O12   O     O_2   0.072110 0.453680 0.423350 -0.450349
O13   O     O_2   0.311354 0.114013 0.396116 -0.594911
O14   O     O_2   0.110222 0.691540 0.310635 -0.582410
O15   O     O_2   0.095253 0.302697 0.683647 -0.581279
O16   O     O_2   0.603319 0.196828 0.256768 -0.605824
O17   O     O_2   0.599872 0.802071 0.748276 -0.586064
O18   O     O_2   0.902844 0.305683 0.990327 -0.580365
O19   O     O_2   0.895250 0.695652 0.408743 -0.575353
O20   O     O_2   0.403972 0.804370 0.981172 -0.571325
O21   O     O_2   0.399688 0.191595 0.509996 -0.578008
O22   O     O_2   0.190858 0.608355 0.219322 -0.584723
O23   O     O_2   0.572110 0.046320 0.923350 -0.426349
O24   O     O_2   0.182814 0.382660 0.766038 -0.595396
O25   O     O_2   0.686975 0.113003 0.236539 -0.586547
O26   O     O_2   0.683983 0.885577 0.726769 -0.599126
O27   O     O_3   0.042000 0.516250 0.155330 -0.472372
O28   O     O_3   0.042000 0.483750 0.655330 -0.468649
O29   O     O_3   0.542000 0.016250 0.155330 -0.474487
O30   O     O_3   0.542000 0.983750 0.655330 -0.466374
O31   O     O_3   0.012540 0.574900 0.645500 -0.497923
O32   O     O_3   0.012540 0.425100 0.145500 -0.469697
O33   O     O_3   0.512540 0.074900 0.645500 -0.464945
O34   O     O_2   0.572110 0.953680 0.423350 -0.445260
O35   O     O_3   0.512540 0.925100 0.145500 -0.472948
O36   O     O_2   0.068497 0.605250 0.805265 -0.426871
O37   O     O_2   0.079986 0.403896 0.237257 -0.447456
O38   O     O_2   0.578504 0.098031 0.750977 -0.407534
O39   O     O_2   0.579182 0.902519 0.248699 -0.447188
O40   O     O_3   0.111378 0.506377 0.081662 -0.637755
O41   O     O_3   0.112195 0.493849 0.601880 -0.665626
O42   O     O_3   0.610418 0.005356 0.081973 -0.628262
O43   O     O_3   0.610370 0.995251 0.591194 -0.660530
O44   O     O_3   0.031793 0.644450 0.609168 -0.586674
O45   O     O_3   0.886243 0.508842 0.579293 -0.623462
O46   O     O_3   0.029780 0.356438 0.204996 -0.583995
O47   O     O_3   0.527466 0.143681 0.692963 -0.545323
O48   O     O_3   0.528345 0.856249 0.193107 -0.570825
O49   O     O_2   0.928110 0.546600 0.766510 -0.461522
O50   O     O_2   0.928110 0.453400 0.266510 -0.450588
O51   O     O_2   0.428110 0.046600 0.766510 -0.468131
O52   O     O_2   0.428110 0.953400 0.266510 -0.436522
O53   O     O_3   0.987780 0.574950 0.044470 -0.466581
O54   O     O_3   0.987780 0.425050 0.544470 -0.468735
O55   O     O_3   0.487780 0.074950 0.044470 -0.455881
O56   O     O_3   0.885509 0.490143 0.076624 -0.628169
O57   O     O_3   0.487780 0.925050 0.544470 -0.482399
O58   O     O_2   0.923491 0.600164 0.929563 -0.490276
O59   O     O_2   0.918374 0.406903 0.465923 -0.483077
O60   O     O_2   0.421551 0.098326 0.945544 -0.482301
O61   O     O_2   0.416178 0.911886 0.478649 -0.482621
O62   O     O_2   0.136120 0.445053 0.096087 -0.614258
O63   O     O_R   0.157911 0.445422 0.353341 -0.791858
O64   O     O_2   0.179735 0.523163 0.889443 -0.591575
O65   O     O_R   0.138267 0.553700 0.742313 -0.716696
O66   O     O_2   0.635757 0.944197 0.107457 -0.615664
O67   O     O_3   0.386148 0.008988 0.575596 -0.628687
O68   O     O_R   0.657102 0.946921 0.365631 -0.784354
O69   O     O_2   0.661915 0.038679 0.893153 -0.595932
O70   O     O_R   0.641747 0.058007 0.652570 -0.706669
O71   O     O_3   0.889757 0.243976 0.054696 -0.602343
O72   O     O_3   0.878752 0.758056 0.421312 -0.598810
O73   O     O_3   0.391238 0.741748 0.028140 -0.601157
O74   O     O_3   0.386549 0.251854 0.598761 -0.603996
O75   O     O_2   0.071938 0.661366 0.022833 -0.596408
O76   O     O_R   0.052022 0.700124 0.838652 -0.745625
O77   O     O_2   0.017756 0.276925 0.808344 -0.602384
O78   O     O_3   0.385742 0.990477 0.082254 -0.629699
O79   O     O_R   0.024992 0.267809 0.546320 -0.738679
O80   O     O_2   0.558547 0.153220 0.998973 -0.587484
O81   O     O_R   0.568095 0.206806 0.913686 -0.750295
O82   O     O_2   0.528894 0.767009 0.616914 -0.578208
O83   O     O_R   0.554520 0.797777 0.425136 -0.731154
O84   O     O_3   0.976232 0.644335 0.995092 -0.603317
P1    P     P_3+3 0.075650 0.535480 0.098240 1.021041
P2    P     P_3+3 0.953279 0.394692 0.563581 0.969355
P3    P     P_3+3 0.454908 0.106914 0.061927 0.985229
P4    P     P_3+3 0.451177 0.896624 0.563816 0.961012
P5    P     P_3+3 0.046157 0.394035 0.126374 1.004913
P6    P     P_3+3 0.049369 0.603418 0.636400 0.998231
P7    P     P_3+3 0.546526 0.894386 0.128182 1.018457
P8    P     P_3+3 0.546308 0.105859 0.627846 1.042902
P9    P     P_3+3 0.075650 0.464520 0.598240 1.004623
P10   P     P_3+3 0.575650 0.035480 0.098240 1.026641
P11   P     P_3+3 0.575650 0.964520 0.598240 1.009948
P12   P     P_3+3 0.924520 0.535770 0.591580 0.992888
P13   P     P_3+3 0.924520 0.464230 0.091580 0.989383
P14   P     P_3+3 0.424520 0.035770 0.591580 0.991899
P15   P     P_3+3 0.424520 0.964230 0.091580 0.984289
P16   P     P_3+3 0.955180 0.607106 0.056718 0.946670

loop_
_geom_bond_atom_site_label_1
_geom_bond_atom_site_label_2
_ccdc_geom_bond_type
C7    H102  S    
Ba2   O27   S    
C143  C152  A    
C183  N6    Am   
C1    H125  S    
C96   O76   S    
O30   P11   S    
O4    P4    S    
C180  H87   S    
C97   O77   D    
C146  C159  A    
C40   H22   S    
C101  H82   S    
C69   H123  S    
C150  C154  A    
Ba4   O29   S    
C69   H53   S    
C53   C148  A    
C164  C186  A    
C156  O20   D    
C33   C38   A    
C5    C9    S    
C49   O72   S    
C114  C127  A    
C29   C143  A    
C13   C57   S    
C44   C121  A    
O43   P11   S    
C148  C152  A    
C74   H67   S    
C107  N1    S    
C40   C66   S    
C147  C151  A    
O51   P14   D    
O36   P6    D    
C104  C108  S    
C42   H25   S    
C3    C168  A    
C90   C135  D    
C72   H56   S    
O6    P12   S    
Ba4   O57   S    
C112  H127  S    
C5    C22   D    
C161  H104  S    
Ba4   P11   S    
C161  C165  A    
C139  H5    S    
C10   C140  S    
Ba1   O53   S    
O7    P15   S    
O78   P15   S    
C160  C164  A    
C92   O71   S    
C67   H112  S    
C37   C63   A    
C45   H114  S    
C5    H99   S    
C27   C146  A    
C6    H100  S    
C175  C184  A    
C56   C173  A    
C107  C178  D    
C84   O10   D    
C173  C182  A    
C100  C136  D    
C92   H34   S    
C15   C19   D    
C132  O4    S    
C54   C149  A    
C123  H128  S    
O28   P9    S    
C80   C101  S    
O40   P1    S    
O3    P3    S    
O53   P16   S    
C113  C126  A    
C52   C147  A    
C86   N4    Am   
C96   C177  S    
C88   O65   S    
C89   O66   D    
C27   C44   A    
O42   P10   S    
C1    H81   S    
C162  H105  S    
C97   O79   S    
O41   P9    S    
C80   H57   S    
C81   C112  S    
Ba1   O6    S    
C88   O64   D    
C3    O17   D    
C141  H7    S    
Ba3   O8    S    
C37   C147  A    
Ba1   O28   S    
C115  C119  A    
O61   P4    D    
C144  C158  A    
C98   O81   S    
C31   C36   A    
Ba2   O12   S    
C1    C78   S    
C48   O71   S    
C41   H23   S    
C24   H119  S    
C134  O18   D    
C93   O72   S    
C67   H13   S    
C51   C128  A    
C156  N3    Am   
C76   H65   S    
C182  O22   D    
C71   C75   S    
C160  H103  S    
C157  C161  A    
C48   C61   A    
O5    P13   S    
C6    C23   D    
C121  H95   S    
H49   O79   S    
C12   C17   D    
C122  H96   S    
C41   C67   S    
Ba4   O7    S    
C75   H60   S    
C12   C138  D    
C99   C181  S    
O55   P3    S    
C22   N6    S    
C13   C109  D    
O49   P12   D    
C45   C122  A    
C81   O47   S    
C16   P11   S    
C74   H63   S    
C92   H36   S    
C82   O48   S    
C14   C139  D    
C67   H52   S    
C176  C185  A    
H48   O76   S    
C85   C118  A    
C2    H117  S    
C78   O44   S    
Ba3   P14   S    
C94   O73   S    
C145  N2    Am   
H51   O83   S    
C114  C118  A    
C40   O45   S    
C78   H1    S    
Ba1   O1    S    
Ba1   P12   S    
C89   O68   S    
C93   H38   S    
C186  O14   D    
C94   H42   S    
C87   O62   D    
C69   H24   S    
O31   P6    S    
C167  O21   D    
C106  C110  S    
H30   O63   S    
C85   N3    Am   
C155  H107  S    
C9    P5    S    
C62   H139  S    
O33   P8    S    
O60   P3    D    
C26   C30   A    
C8    P6    S    
C76   H70   S    
C6    C10   S    
C63   H140  S    
C30   C111  A    
C71   O41   S    
C12   P1    S    
C117  C121  A    
C49   C62   A    
C91   O70   S    
C188  N7    Am   
C65   H90   S    
C33   C115  A    
C34   C61   A    
C4    C8    S    
C92   H37   S    
C2    C46   S    
C83   N1    Am   
H32   O68   S    
Ba4   P15   S    
C129  C177  S    
C162  C166  A    
O37   P5    D    
C39   H26   S    
C165  C187  A    
Ba3   Ba4   S    
C109  N3    S    
C180  H19   S    
C187  O15   D    
C17   C21   S    
C14   C18   D    
C103  C107  S    
C81   H74   S    
C70   O40   S    
C72   C76   S    
O67   P14   S    
C108  N2    S    
C99   O82   D    
C57   C136  S    
C77   H71   S    
C73   H58   S    
O2    P2    S    
O54   P2    S    
C55   H124  S    
C50   C63   A    
C78   H72   S    
C95   H44   S    
C39   O56   S    
O84   P16   S    
C144  C153  A    
C187  N6    Am   
C59   H131  S    
C28   C45   A    
C35   C178  S    
Ba2   O50   S    
C172  C176  A    
Ba3   O55   S    
C188  O16   D    
C41   H28   S    
C155  C160  A    
C36   C62   A    
C66   H46   S    
C34   C149  A    
C157  H108  S    
C101  H126  S    
C42   C69   S    
C168  C172  A    
Ba4   O35   S    
C120  H94   S    
C86   O13   D    
C15   C140  D    
C4    C21   D    
Ba3   O30   S    
Ba4   O52   S    
C134  N1    Am   
C53   H121  S    
C51   C64   A    
C179  H18   S    
C152  C170  A    
C77   H66   S    
C130  H9    S    
C48   C125  A    
C131  H15   S    
C56   H129  S    
C102  C106  D    
C70   H54   S    
C130  H14   S    
C93   H40   S    
C28   C142  A    
C18   H135  S    
C137  H3    S    
C66   H101  S    
C64   H141  S    
C100  P15   S    
C20   C25   S    
C98   O80   D    
C52   H120  S    
C158  C162  A    
C159  H110  S    
C142  C151  A    
C51   O74   S    
H31   O65   S    
C75   H64   S    
O38   P8    D    
C54   H122  S    
C32   C114  A    
C170  C174  A    
C97   C179  S    
O56   P13   S    
C95   H47   S    
C50   O73   S    
C130  O2    S    
C87   O63   S    
C74   H59   S    
C32   C37   A    
C24   C68   S    
C82   H75   S    
C112  H78   S    
C55   C150  A    
C96   O75   D    
C166  C171  A    
C101  H77   S    
C65   H134  S    
Ba3   P10   S    
C76   H61   S    
O50   P13   D    
O35   P7    S    
C143  C157  A    
C110  N4    S    
C132  H16   S    
C46   C135  S    
C79   P13   S    
Ba3   O7    S    
C13   H118  S    
O23   P10   D    
C29   C33   A    
Ba3   O33   S    
C83   O9    D    
C70   C87   S    
C112  H83   S    
O32   P5    S    
C72   C89   S    
O45   P12   S    
C73   C77   S    
C66   H2    S    
C46   P16   S    
H33   O70   S    
O12   P9    D    
Ba1   P1    S    
C184  O25   D    
C104  H91   S    
C85   O11   D    
C174  C183  A    
Ba1   O5    S    
O34   P11   D    
C129  O84   S    
C163  H106  S    
C75   H69   S    
C186  N5    Am   
C27   C31   A    
C47   C124  A    
C28   C32   A    
C79   C133  D    
C71   H55   S    
C102  C137  D    
C73   O43   S    
Ba1   O49   S    
C44   H113  S    
C25   N8    S    
C146  C154  A    
C82   C123  S    
Ba4   O8    S    
O52   P15   D    
C72   O42   S    
C84   C117  A    
C82   H79   S    
H50   O81   S    
C26   C144  A    
C163  C168  A    
C185  N8    Am   
C29   C47   A    
C41   O78   S    
C131  O3    S    
C183  O24   D    
O39   P7    D    
O27   P1    S    
C99   O83   S    
C43   C120  A    
C145  O19   D    
C106  H93   S    
C35   P2    S    
Ba2   O54   S    
C8    C138  S    
C9    C139  S    
C149  C153  A    
C95   H45   S    
C52   C56   A    
Ba2   O6    S    
C102  P14   S    
C1    H76   S    
C18   C22   S    
Ba2   O32   S    
C16   C141  D    
C2    C108  D    
C14   P9    S    
O44   P6    S    
Ba2   P9    S    
C35   C133  S    
C123  H84   S    
C132  C181  S    
C95   O74   S    
C3    N8    Am   
O1    P1    D    
C130  C179  S    
C21   N5    S    
O59   P2    D    
Ba4   O34   S    
C53   C58   A    
C4    H98   S    
C23   N7    S    
C50   C127  A    
C57   P4    S    
O48   P7    S    
C90   C104  D    
C55   C60   A    
C42   H29   S    
C135  H143  S    
C136  H144  S    
O58   P16   D    
O47   P8    S    
C133  H142  S    
C100  C105  D    
C60   C176  A    
Ba3   O51   S    
C166  C188  A    
C185  O26   D    
C59   C175  A    
C177  H17   S    
Ba1   Ba2   S    
C113  C117  A    
C91   O69   D    
C19   H136  S    
C94   H43   S    
C16   C20   D    
C79   C103  D    
C128  C167  A    
C19   C23   S    
C77   H62   S    
C38   C148  A    
C70   C74   S    
C105  C109  S    
C68   C137  S    
C151  C169  A    
C129  H12   S    
Ba2   P13   S    
O46   P5    S    
C38   C64   A    
C36   C150  A    
C103  H89   S    
C40   H27   S    
C131  C180  S    
C65   H35   S    
C131  H10   S    
Ba2   O5    S    
C164  C169  A    
C125  C134  A    
O8    P14   S    
C26   C43   A    
C11   C141  S    
C105  H92   S    
O29   P10   S    
C171  C175  A    
C142  C155  A    
C73   C91   S    
C10   P8    S    
C118  C122  A    
C165  C170  A    
C159  C163  A    
C42   O67   S    
C11   P7    S    
O57   P4    S    
C169  C173  A    
C126  C145  A    
C115  C128  A    
C181  H20   S    
C84   N2    Am   
C167  N4    Am   
C80   O46   S    
C24   C110  D    
C71   C88   S    
C153  C171  A    
C47   H115  S    
C60   H132  S    
C154  C172  A    
C124  H97   S    
C129  H8    S    
C7    C11   S    
C123  H80   S    
C20   H137  S    
C31   C113  A    
C39   H21   S    
C181  H88   S    
C179  H86   S    
Ba1   O31   S    
C68   P3    S    
C54   C59   A    
C30   C34   A    
C184  N7    Am   
C43   H111  S    
Ba3   O23   S    
C58   C174  A    
C111  C125  A    
C98   C180  S    
C83   C116  A    
C158  H109  S    
C177  H85   S    
C119  C124  A    
C93   H39   S    
C94   H41   S    
C90   P12   S    
C15   P10   S    
C178  H116  S    
C80   H73   S    
C132  H11   S    
C81   H68   S    
C127  C156  A    
C58   H130  S    
C182  N5    Am   
C140  H6    S    
C7    C25   D    
C39   C65   S    
C111  C116  A    
C138  H4    S    
C49   C126  A    
C86   C119  A    
C61   H138  S    
C116  C120  A    
C17   H133  S    
