data_mof_unit_3033.cif
_audit_creation_date              2013-03-05T15:51:40-0500
_audit_creation_method            fapswitch 2.2
_symmetry_space_group_name_H-M    P1
_symmetry_Int_Tables_number       1
_space_group_crystal_system       triclinic
_cell_length_a                    31.516345
_cell_length_b                    18.463295
_cell_length_c                    25.651789
_cell_angle_alpha                 89.885404
_cell_angle_beta                  144.802626
_cell_angle_gamma                 90.066122
_cell_volume                      8603.6314103

loop_
_atom_site_label
_atom_site_type_symbol
_atom_site_description
_atom_site_fract_x
_atom_site_fract_y
_atom_site_fract_z
_atom_type_partial_charge
Zn1   Zn    Zn3+2 1.000000 0.086750 0.293940 1.011322
Zn2   Zn    Zn3+2 1.000000 0.913250 0.706060 0.983875
Zn3   Zn    Zn3+2 1.000000 0.086750 0.706060 1.022746
Zn4   Zn    Zn3+2 1.000000 0.913250 0.293940 1.032723
Zn5   Zn    Zn3+2 0.500000 0.586750 0.293940 1.009062
Zn6   Zn    Zn3+2 0.500000 0.413250 0.706060 1.028128
Zn7   Zn    Zn3+2 0.500000 0.586750 0.706060 1.016873
Zn8   Zn    Zn3+2 0.500000 0.413250 0.293940 0.995231
Zn9   Zn    Zn3+2 0.913220 0.000000 0.119290 1.102016
Zn10  Zn    Zn3+2 0.086780 0.000000 0.880710 1.091269
Zn11  Zn    Zn3+2 0.413220 0.500000 0.119290 1.089271
Zn12  Zn    Zn3+2 0.586780 0.500000 0.880710 1.104257
Zn13  Zn    Zn3+2 0.086730 0.000000 0.292800 0.985313
Zn14  Zn    Zn3+2 0.913270 0.000000 0.707200 1.009375
Zn15  Zn    Zn3+2 0.586730 0.500000 0.292800 1.010445
Zn16  Zn    Zn3+2 0.413270 0.500000 0.707200 0.987223
O1    O     O_3   0.999990 0.000000 0.249990 -0.498698
O2    O     O_3   0.000010 0.000000 0.750010 -0.503789
O3    O     O_3   0.499990 0.500000 0.249990 -0.500156
O4    O     O_3   0.500010 0.500000 0.750010 -0.501701
O5    O     O_R   0.914560 0.853840 0.195310 -0.603763
O6    O     O_R   0.085440 0.146160 0.804690 -0.629387
O7    O     O_R   0.085440 0.853840 0.804690 -0.641664
O8    O     O_R   0.914560 0.146160 0.195310 -0.648035
O9    O     O_R   0.414560 0.353840 0.195310 -0.640816
O10   O     O_R   0.585440 0.646160 0.804690 -0.641682
O11   O     O_R   0.585440 0.353840 0.804690 -0.607514
O12   O     O_R   0.414560 0.646160 0.195310 -0.630333
O13   O     O_R   0.085440 0.146150 0.366190 -0.641207
O14   O     O_R   0.914560 0.853850 0.633810 -0.612470
O15   O     O_R   0.914560 0.146150 0.633810 -0.624450
O16   O     O_R   0.085440 0.853850 0.366190 -0.633103
O17   O     O_R   0.585440 0.646150 0.366190 -0.622261
O18   O     O_R   0.414560 0.353850 0.633810 -0.630828
O19   O     O_R   0.414560 0.646150 0.633810 -0.646077
O20   O     O_R   0.585440 0.353850 0.366190 -0.618784
O21   O     O_R   0.853820 0.085430 0.073070 -0.570314
O22   O     O_R   0.146180 0.914570 0.926930 -0.627945
O23   O     O_R   0.146180 0.085430 0.926930 -0.583418
O24   O     O_R   0.853820 0.914570 0.073070 -0.628854
O25   O     O_R   0.353820 0.585430 0.073070 -0.602396
O26   O     O_R   0.646180 0.414570 0.926930 -0.625144
O27   O     O_R   0.646180 0.585430 0.926930 -0.570994
O28   O     O_R   0.353820 0.414570 0.073070 -0.606935
O29   O     O_R   0.146150 0.914540 0.365390 -0.644944
O30   O     O_R   0.853850 0.085460 0.634610 -0.626045
O31   O     O_R   0.853850 0.914540 0.634610 -0.653088
O32   O     O_R   0.146150 0.085460 0.365390 -0.626736
O33   O     O_R   0.646150 0.414540 0.365390 -0.634512
O34   O     O_R   0.353850 0.585460 0.634610 -0.623811
O35   O     O_R   0.353850 0.414540 0.634610 -0.644600
O36   O     O_R   0.646150 0.585460 0.365390 -0.635801
O37   O     O_R   0.939240 0.000000 0.071950 -0.613922
O38   O     O_R   0.060760 0.000000 0.928050 -0.603330
O39   O     O_R   0.439240 0.500000 0.071950 -0.627772
O40   O     O_R   0.560760 0.500000 0.928050 -0.606268
O41   O     O_R   0.000020 0.939290 0.367320 -0.619365
O42   O     O_R   0.999980 0.060710 0.632680 -0.638317
O43   O     O_R   0.999980 0.939290 0.632680 -0.655257
O44   O     O_R   0.000020 0.060710 0.367320 -0.641716
O45   O     O_R   0.500020 0.439290 0.367320 -0.641301
O46   O     O_R   0.499980 0.560710 0.632680 -0.631746
O47   O     O_R   0.499980 0.439290 0.632680 -0.627738
O48   O     O_R   0.500020 0.560710 0.367320 -0.654009
O49   O     O_R   0.060680 0.000000 0.193390 -0.634063
O50   O     O_R   0.939320 0.000000 0.806610 -0.632104
O51   O     O_R   0.560680 0.500000 0.193390 -0.644385
O52   O     O_R   0.439320 0.500000 0.806610 -0.624689
C1    C     C_R   0.859821 0.860144 0.109589 0.876256
C2    C     C_R   0.140428 0.139815 0.890589 0.884959
C3    C     C_R   0.143983 0.864088 0.890864 0.839587
C4    C     C_R   0.861439 0.141769 0.108361 0.886566
C5    C     C_R   0.356519 0.363235 0.108739 0.831457
C6    C     C_R   0.638719 0.641650 0.891644 0.889748
C7    C     C_R   0.640120 0.360142 0.890345 0.870400
C8    C     C_R   0.359288 0.639918 0.109355 0.873073
C9    C     C_R   0.139634 0.140110 0.388782 0.826168
C10   C     C_R   0.861317 0.859259 0.612951 0.834169
C11   C     C_R   0.862068 0.141774 0.614703 0.838122
C12   C     C_R   0.138830 0.859134 0.387496 0.829060
C13   C     C_R   0.638422 0.641433 0.386233 0.837764
C14   C     C_R   0.360343 0.359862 0.611197 0.826587
C15   C     C_R   0.361211 0.640839 0.612540 0.826746
C16   C     C_R   0.638596 0.359121 0.386973 0.835476
C17   C     C_R   0.999807 0.989547 0.108633 0.871062
C18   C     C_R   0.000133 0.988475 0.891114 0.908731
C19   C     C_R   0.499699 0.503882 0.107499 0.910088
C20   C     C_R   0.500203 0.485776 0.890146 0.865257
C21   C     C_R   0.999668 0.999945 0.391233 0.844968
C22   C     C_R   0.000531 0.999978 0.609007 0.812370
C23   C     C_R   0.500096 0.500046 0.391659 0.811995
C24   C     C_R   0.499894 0.500017 0.608350 0.849773
C25   C     C_3   0.056700 0.959488 0.539204 -0.230187
C26   C     C_3   0.944020 0.039992 0.461649 -0.235556
C27   C     C_3   0.993609 0.931348 0.511100 -0.196545
C28   C     C_3   0.007257 0.068217 0.489963 -0.180604
C29   C     C_3   0.552933 0.455299 0.535782 -0.216132
C30   C     C_3   0.447238 0.545184 0.464489 -0.225066
C31   C     C_3   0.486897 0.432557 0.504121 -0.177278
C32   C     C_3   0.513135 0.567890 0.495962 -0.202235
C33   C     C_3   0.063936 0.027565 0.580950 0.190567
C34   C     C_3   0.936852 0.971828 0.420056 0.209401
C35   C     C_3   0.565550 0.522552 0.583046 0.202261
C36   C     C_3   0.434512 0.478006 0.417122 0.180829
H1    H     H_    0.103048 0.926588 0.570407 0.167340
H2    H     H_    0.897644 0.072853 0.430419 0.165782
H3    H     H_    0.987911 0.875108 0.520223 0.176991
H4    H     H_    0.013104 0.124480 0.481072 0.177287
H5    H     H_    0.596481 0.418684 0.564435 0.173102
H6    H     H_    0.403733 0.581831 0.435908 0.167107
H7    H     H_    0.475799 0.377046 0.507693 0.179862
H8    H     H_    0.524141 0.623393 0.492244 0.173808
C37   C     C_3   0.001098 0.999701 0.552291 -0.022556
C38   C     C_3   0.999587 0.999850 0.448508 -0.041557
C39   C     C_3   0.500023 0.499972 0.551159 -0.039100
C40   C     C_3   0.500034 0.500424 0.448951 -0.026087
H9    H     H_    0.056885 0.357526 0.203916 0.172070
H10   H     H_    0.924163 0.654670 0.799320 0.168557
H11   H     H_    0.903664 0.329133 0.794687 0.175158
H12   H     H_    0.086611 0.665977 0.201461 0.170262
H13   H     H_    0.581984 0.841717 0.204356 0.179246
H14   H     H_    0.443264 0.142024 0.795667 0.168531
H15   H     H_    0.414167 0.834097 0.798818 0.173001
H16   H     H_    0.586344 0.164190 0.201809 0.167542
C41   C     C_R   0.279065 0.112366 0.573780 -0.148328
C42   C     C_R   0.727748 0.883320 0.425883 -0.151562
C43   C     C_R   0.743066 0.129738 0.424789 -0.147808
C44   C     C_R   0.259365 0.871411 0.576480 -0.151245
C45   C     C_R   0.763664 0.623765 0.576454 -0.146453
C46   C     C_R   0.221057 0.387327 0.425845 -0.148041
C47   C     C_R   0.241409 0.628912 0.423782 -0.152206
C48   C     C_R   0.765123 0.377177 0.575591 -0.149911
C49   C     C_R   0.344313 0.098317 0.665393 -0.170861
C50   C     C_R   0.667926 0.893255 0.333004 -0.173522
C51   C     C_R   0.686321 0.121628 0.332293 -0.179466
C52   C     C_R   0.316461 0.879235 0.669031 -0.191135
C53   C     C_R   0.823068 0.613225 0.669061 -0.162906
C54   C     C_R   0.155943 0.401244 0.334148 -0.173743
C55   C     C_R   0.184565 0.621174 0.331295 -0.188423
C56   C     C_R   0.820945 0.383888 0.668115 -0.175910
C57   C     C_R   0.878429 0.664373 0.727215 -0.111168
C58   C     C_R   0.105616 0.346218 0.275784 -0.146810
C59   C     C_R   0.130227 0.673288 0.273533 -0.123189
C60   C     C_R   0.864864 0.324875 0.723828 -0.104969
C61   C     C_R   0.394511 0.153384 0.723815 -0.136510
C62   C     C_R   0.623843 0.834864 0.276048 -0.093835
C63   C     C_R   0.630251 0.172179 0.273848 -0.115495
C64   C     C_R   0.370491 0.826811 0.726730 -0.126674
C65   C     C_R   0.875480 0.727623 0.694295 0.114140
C66   C     C_R   0.118392 0.276673 0.308160 0.111272
C67   C     C_R   0.131368 0.734296 0.306827 0.098769
C68   C     C_R   0.856034 0.259475 0.688390 0.167505
C69   C     C_R   0.381418 0.223079 0.691517 0.107313
C70   C     C_R   0.636586 0.766935 0.311151 0.166367
C71   C     C_R   0.629926 0.232445 0.306433 0.123967
C72   C     C_R   0.368823 0.765385 0.693338 0.108153
C73   C     C_R   0.814111 0.740239 0.598193 0.028337
C74   C     C_R   0.182509 0.262493 0.403951 0.030218
C75   C     C_R   0.189720 0.743615 0.402981 0.031532
C76   C     C_R   0.805671 0.254462 0.594954 -0.001380
C77   C     C_R   0.317361 0.237379 0.595803 0.040436
C78   C     C_R   0.690750 0.758233 0.405487 0.000791
C79   C     C_R   0.688894 0.242826 0.402502 0.025814
C80   C     C_R   0.310456 0.756262 0.597128 0.020771
C81   C     C_R   0.264026 0.181676 0.537184 0.050363
C82   C     C_R   0.741175 0.815453 0.463750 0.052098
C83   C     C_R   0.745614 0.189692 0.461738 0.063803
C84   C     C_R   0.254788 0.810288 0.538591 0.055318
C85   C     C_R   0.757855 0.686691 0.539174 0.059218
C86   C     C_R   0.235935 0.318169 0.462556 0.049558
C87   C     C_R   0.245561 0.689768 0.461547 0.055346
C88   C     C_R   0.755292 0.312065 0.537194 0.054831
C89   C     C_R   0.804932 0.803950 0.558324 -0.126347
C90   C     C_R   0.196304 0.195571 0.443390 -0.135238
C91   C     C_R   0.195191 0.803321 0.443257 -0.132317
C92   C     C_R   0.803389 0.195879 0.556771 -0.137462
C93   C     C_R   0.303592 0.304375 0.556451 -0.131995
C94   C     C_R   0.696928 0.695858 0.443940 -0.136676
C95   C     C_R   0.695020 0.303742 0.442280 -0.127174
C96   C     C_R   0.304915 0.696596 0.556809 -0.136073
H17   H     H_    0.240947 0.067669 0.532217 0.127349
H18   H     H_    0.762929 0.929760 0.467317 0.130803
H19   H     H_    0.784690 0.087799 0.466807 0.116786
H20   H     H_    0.218848 0.914381 0.535161 0.115731
H21   H     H_    0.722422 0.581530 0.534583 0.116714
H22   H     H_    0.259242 0.431986 0.467388 0.127735
H23   H     H_    0.282108 0.586106 0.465154 0.115508
H24   H     H_    0.730015 0.423921 0.534757 0.121502
H25   H     H_    0.354980 0.044841 0.691711 0.145533
H26   H     H_    0.658368 0.945424 0.305316 0.150678
H27   H     H_    0.685639 0.075486 0.305637 0.146385
H28   H     H_    0.318524 0.926181 0.696271 0.150099
H29   H     H_    0.826181 0.564983 0.696084 0.144107
H30   H     H_    0.145441 0.454613 0.307740 0.147795
H31   H     H_    0.182836 0.574453 0.304158 0.149452
H32   H     H_    0.827479 0.433804 0.696185 0.146855
H33   H     H_    0.611505 0.976087 0.883607 0.176977
H34   H     H_    0.208594 0.195984 0.143630 0.189321
H35   H     H_    0.331750 0.897248 0.222184 0.178823
H36   H     H_    0.617660 0.049090 0.801652 0.173207
H37   H     H_    0.208966 0.366750 0.797505 0.176831
H38   H     H_    0.883569 0.547628 0.196445 0.173050
H39   H     H_    0.886862 0.476356 0.112188 0.177194
H40   H     H_    0.286454 0.688192 0.851848 0.179590
C97   C     C_R   0.892560 0.707757 0.142721 -0.105869
C98   C     C_R   0.193642 0.211489 0.850874 -0.098668
C99   C     C_R   0.183433 0.787144 0.831186 -0.122522
C100  C     C_R   0.903339 0.297077 0.151039 -0.125136
C101  C     C_R   0.310993 0.293634 0.162491 -0.113909
C102  C     C_R   0.596230 0.796257 0.849189 -0.122252
C103  C     C_R   0.607554 0.207417 0.856171 -0.109760
C104  C     C_R   0.321534 0.728659 0.162079 -0.103977
C105  C     C_R   0.913097 0.638545 0.179124 -0.187186
C106  C     C_R   0.198537 0.257100 0.812599 -0.164214
C107  C     C_R   0.203172 0.750115 0.805930 -0.196534
C108  C     C_R   0.922536 0.369833 0.167398 -0.214977
C109  C     C_R   0.290507 0.258964 0.187787 -0.176459
C110  C     C_R   0.576463 0.868873 0.831398 -0.206627
C111  C     C_R   0.587372 0.138641 0.819162 -0.192451
C112  C     C_R   0.329694 0.782928 0.207432 -0.198982
C113  C     C_R   0.228712 0.215183 0.126552 -0.157850
C114  C     C_R   0.629397 0.921111 0.894315 -0.191513
C115  C     C_R   0.636962 0.097715 0.840161 -0.195353
C116  C     C_R   0.315106 0.854494 0.179231 -0.243803
C117  C     C_R   0.863909 0.596720 0.158207 -0.203328
C118  C     C_R   0.215020 0.329914 0.836194 -0.222139
C119  C     C_R   0.266631 0.708283 0.869008 -0.173582
C120  C     C_R   0.869361 0.421502 0.102803 -0.189558
C121  C     C_R   0.188687 0.202822 0.040593 0.353446
C122  C     C_R   0.703735 0.901976 0.974012 0.359913
C123  C     C_R   0.709560 0.121844 0.906132 0.402679
C124  C     C_R   0.282030 0.871001 0.098036 0.358393
C125  C     C_R   0.791370 0.620589 0.093008 0.402038
C126  C     C_R   0.234292 0.355637 0.905122 0.356825
C127  C     C_R   0.308786 0.700220 0.956739 0.351674
C128  C     C_R   0.795247 0.401779 0.023309 0.359286
C129  C     C_R   0.218222 0.225767 0.021287 -0.017028
C130  C     C_R   0.725974 0.828981 0.986047 -0.024723
C131  C     C_R   0.733901 0.184593 0.958283 -0.000319
C132  C     C_R   0.261968 0.813100 0.043968 -0.024427
C133  C     C_R   0.766506 0.684156 0.041292 0.000971
C134  C     C_R   0.245523 0.304775 0.957687 -0.020592
C135  C     C_R   0.279259 0.723633 0.975664 -0.011397
C136  C     C_R   0.773629 0.329008 0.013001 -0.025412
C137  C     C_R   0.820170 0.733399 0.078672 0.023491
C138  C     C_R   0.211087 0.237380 0.918782 0.018625
C139  C     C_R   0.221440 0.775133 0.916846 0.056290
C140  C     C_R   0.828982 0.275039 0.072427 0.048068
C141  C     C_R   0.275717 0.277642 0.079183 0.048188
C142  C     C_R   0.670863 0.774722 0.927416 0.047552
C143  C     C_R   0.679923 0.233364 0.920782 0.023164
C144  C     C_R   0.296043 0.745877 0.085851 0.031544
C145  C     C_R   0.192491 0.199913 0.946332 -0.118294
C146  C     C_R   0.800704 0.807205 0.054619 -0.139010
C147  C     C_R   0.808332 0.201153 0.046212 -0.138480
C148  C     C_R   0.209904 0.818030 0.950500 -0.126359
C149  C     C_R   0.691872 0.700873 0.953734 -0.137029
C150  C     C_R   0.291307 0.316022 0.047993 -0.121166
C151  C     C_R   0.308104 0.701407 0.053857 -0.125283
C152  C     C_R   0.699147 0.307132 0.945024 -0.140350
H41   H     H_    0.933968 0.741159 0.166247 0.165049
H42   H     H_    0.175912 0.156336 0.826733 0.171735
H43   H     H_    0.141325 0.827663 0.784243 0.179298
H44   H     H_    0.948243 0.259265 0.198999 0.181192
H45   H     H_    0.352242 0.335002 0.207945 0.191279
H46   H     H_    0.551530 0.758126 0.802634 0.178946
H47   H     H_    0.565891 0.240317 0.832546 0.165002
H48   H     H_    0.337196 0.674169 0.188666 0.157438
H49   H     H_    0.969008 0.619953 0.229325 0.164543
H50   H     H_    0.183853 0.237413 0.759548 0.188688
H51   H     H_    0.173321 0.759669 0.740055 0.164873
H52   H     H_    0.979835 0.385580 0.227383 0.167591
H53   H     H_    0.318864 0.271072 0.252318 0.186797
H54   H     H_    0.518968 0.884171 0.771617 0.165982
H55   H     H_    0.531463 0.119812 0.768492 0.164590
H56   H     H_    0.352676 0.770230 0.268377 0.161888
H57   H     H_    0.244433 0.892024 0.293928 0.149155
H58   H     H_    0.754431 0.894153 0.705445 0.154465
H59   H     H_    0.755249 0.511362 0.292885 0.155808
H60   H     H_    0.250465 0.428758 0.703394 0.151599
C153  C     C_R   0.867421 0.927035 0.920997 -0.066848
C154  C     C_R   0.131622 0.924832 0.078275 -0.091760
C155  C     C_R   0.360260 0.507333 0.904141 -0.059057
C156  C     C_R   0.633803 0.443879 0.083882 -0.066250
C157  C     C_R   0.803239 0.910790 0.829430 -0.096368
C158  C     C_R   0.195390 0.907670 0.169698 -0.129605
C159  C     C_R   0.295993 0.485107 0.814626 -0.164958
C160  C     C_R   0.701086 0.457801 0.175178 -0.069233
C161  C     C_R   0.803440 0.910274 0.775643 -0.145079
C162  C     C_R   0.195576 0.908534 0.223771 -0.148638
C163  C     C_R   0.300119 0.447979 0.771983 -0.151590
C164  C     C_R   0.702912 0.496681 0.223178 -0.139139
C165  C     C_R   0.867796 0.926100 0.813162 -0.110438
C166  C     C_R   0.131759 0.926144 0.186628 -0.105877
C167  C     C_R   0.368121 0.438272 0.816500 -0.083473
C168  C     C_R   0.637324 0.516177 0.181837 -0.087291
C169  C     C_R   0.932964 0.947153 0.905075 0.084219
C170  C     C_R   0.066584 0.947128 0.094555 0.089156
C171  C     C_R   0.433351 0.464700 0.905392 0.076748
C172  C     C_R   0.567739 0.495796 0.091195 0.064795
C173  C     C_R   0.932786 0.947589 0.960112 0.072353
C174  C     C_R   0.066664 0.946659 0.039421 0.083117
C175  C     C_R   0.431101 0.491780 0.954182 0.065324
C176  C     C_R   0.567201 0.467743 0.039945 0.065072
C177  C     C_R   0.999983 0.962107 0.945737 -0.202900
C178  C     C_R   0.999670 0.962865 0.053876 -0.195606
C179  C     C_R   0.500423 0.465988 0.945623 -0.202323
C180  C     C_R   0.499235 0.503141 0.049621 -0.161772
H61   H     H_    0.865509 0.917363 0.960482 0.178308
H62   H     H_    0.133240 0.914884 0.038519 0.168204
H63   H     H_    0.351891 0.539046 0.930299 0.219295
H64   H     H_    0.634023 0.413993 0.047825 0.157841
H65   H     H_    0.754066 0.895084 0.801074 0.163115
H66   H     H_    0.244001 0.890122 0.198092 0.142094
H67   H     H_    0.242807 0.496530 0.778385 0.178135
H68   H     H_    0.751824 0.440502 0.207836 0.167290
H69   H     H_    0.866208 0.915879 0.770245 0.181544
H70   H     H_    0.133962 0.917043 0.230242 0.190338
H71   H     H_    0.369418 0.409664 0.781063 0.174407
H72   H     H_    0.643099 0.549354 0.221741 0.190442
I1    I     I_    0.167230 0.068934 0.710378 -0.428706
I2    I     I_    0.834438 0.925998 0.293832 -0.234566
I3    I     I_    0.670210 0.557981 0.716092 -0.268918
I4    I     I_    0.328304 0.446015 0.283643 -0.429692
N1    N     N_R   0.113280 0.180837 0.970099 0.198999
O53   O     O_R   0.092879 0.142219 0.989558 -0.378605
O54   O     O_R   0.063110 0.213895 0.892375 -0.414784
N2    N     N_R   0.752214 0.953520 0.046824 0.193536
O55   O     O_R   0.741523 0.022526 0.029311 -0.432843
O56   O     O_R   0.794066 0.932887 0.127226 -0.383668
N3    N     N_R   0.750821 0.092655 0.904537 0.223799
O57   O     O_R   0.739914 0.026422 0.878105 -0.404248
O58   O     O_R   0.794398 0.134302 0.921319 -0.361142
N4    N     N_R   0.281509 0.945320 0.080278 0.226062
O59   O     O_R   0.281236 0.997889 0.113747 -0.387392
O60   O     O_R   0.287752 0.960827 0.037214 -0.390151
N5    N     N_R   0.750997 0.590265 0.095547 0.222993
O61   O     O_R   0.761549 0.523298 0.120247 -0.414468
O62   O     O_R   0.708585 0.631337 0.081223 -0.361011
N6    N     N_R   0.226507 0.431956 0.907590 0.232364
O63   O     O_R   0.232668 0.479112 0.876261 -0.424883
O64   O     O_R   0.206638 0.454176 0.933684 -0.376667
N7    N     N_R   0.386225 0.686205 0.029015 0.196523
O65   O     O_R   0.411330 0.656046 0.012042 -0.434231
O66   O     O_R   0.432190 0.721234 0.104721 -0.403159
N8    N     N_R   0.746431 0.452062 0.948886 0.192752
O67   O     O_R   0.755202 0.521337 0.964227 -0.423097
O68   O     O_R   0.706221 0.430129 0.869639 -0.386404
I5    I     I_    0.968624 0.795296 0.803456 -0.420583
I6    I     I_    0.040569 0.200616 0.199571 -0.321445
I7    I     I_    0.040142 0.803513 0.197768 -0.482683
I8    I     I_    0.904076 0.172158 0.778407 -0.167210
I9    I     I_    0.458250 0.299137 0.799957 -0.481425
I10   I     I_    0.589669 0.682489 0.219597 -0.237616
I11   I     I_    0.535009 0.298643 0.196941 -0.351435
I12   I     I_    0.458831 0.694776 0.802243 -0.327326

loop_
_geom_bond_atom_site_label_1
_geom_bond_atom_site_label_2
_geom_bond_distance
_ccdc_geom_bond_type
C84   C91   1.420750 A    
C45   H21   1.081896 S    
C33   C37   1.531955 S    
C71   I11   2.143415 S    
C48   H24   1.082000 S    
N5    O61   1.301634 A    
C49   H25   1.082038 S    
C47   C87   1.419455 A    
O26   C7    1.279638 A    
C65   I5    2.142611 S    
C15   C96   1.450639 S    
C130  C146  1.425262 A    
C133  C137  1.398578 A    
C13   C94   1.463465 S    
C166  C170  1.420184 A    
C97   C137  1.414851 A    
O30   C11   1.273718 A    
C170  C174  1.416388 A    
Zn12  O26   1.941672 S    
C73   C85   1.424073 A    
C36   C40   1.531680 S    
C74   C90   1.420077 A    
C176  C179  1.400838 A    
C122  C130  1.431719 A    
C63   C71   1.398067 A    
C27   C34   1.543077 S    
C98   C106  1.393155 A    
C59   C67   1.397502 A    
C28   H4    1.110128 S    
C102  H46   1.076086 S    
C134  C150  1.424671 A    
C28   C38   1.538564 S    
O11   C7    1.274058 A    
C55   H31   1.082582 S    
O34   C15   1.277341 A    
H38   C117  1.082610 S    
C68   I8    2.121363 S    
C109  C113  1.383997 A    
C50   C62   1.382923 A    
H16   C63   1.082986 S    
Zn8   O3    1.956689 S    
C80   C84   1.421370 A    
C127  N7    1.437057 S    
N6    O63   1.301305 A    
Zn1   O44   1.941328 S    
C25   C33   1.544078 S    
Zn2   O43   1.941328 S    
C167  C171  1.415880 A    
C104  C112  1.392341 A    
C161  C165  1.391014 A    
Zn5   O48   1.941328 S    
C69   C77   1.439189 A    
Zn6   O47   1.941328 S    
C101  H45   1.075584 S    
Zn7   O46   1.943191 S    
C34   C38   1.533061 S    
C143  C152  1.412273 A    
O16   C12   1.279207 A    
C62   C70   1.396678 A    
Zn16  O4    1.942378 S    
Zn12  O4    1.932479 S    
C111  H55   1.082785 S    
C76   C88   1.414275 A    
C43   C83   1.417624 A    
C26   C28   1.550657 S    
C127  C135  1.424290 A    
Zn4   O16   1.931566 S    
C75   C87   1.421141 A    
C88   C95   1.414909 A    
C52   H28   1.082511 S    
C131  C147  1.427386 A    
C49   C61   1.382020 A    
C4    C147  1.476967 S    
C121  C129  1.429251 A    
C46   C54   1.385606 A    
C99   H43   1.076008 S    
H58   C161  1.082733 S    
C153  H61   1.077198 S    
C99   C139  1.417478 A    
C165  H69   1.077422 S    
C138  C145  1.412612 A    
C167  H71   1.081485 S    
C168  H72   1.074178 S    
Zn10  O22   1.941672 S    
C101  C109  1.389149 A    
H9    C58   1.082948 S    
C19   C180  1.472809 S    
O25   C8    1.284263 A    
Zn13  O29   1.939060 S    
C171  C179  1.403082 A    
Zn10  O2    1.932479 S    
C158  H66   1.076603 S    
O29   C12   1.277577 A    
C155  H63   1.074160 S    
C25   C38   1.536239 S    
Zn15  O33   1.939060 S    
Zn16  O34   1.939057 S    
C154  C174  1.418605 A    
C45   C53   1.384369 A    
C104  H48   1.081278 S    
O37   C17   1.277093 A    
H35   C116  1.081774 S    
C48   C88   1.420025 A    
O48   C23   1.280282 A    
C77   C81   1.419702 A    
C47   H23   1.081848 S    
N3    O58   1.302063 A    
C107  H51   1.082876 S    
C9    C90   1.453713 S    
C122  N2    1.438192 S    
C79   C83   1.423254 A    
C136  C152  1.423010 A    
Zn16  O35   1.941601 S    
C141  C150  1.422366 A    
C109  H53   1.082604 S    
C108  C120  1.386789 A    
Zn7   O10   1.930052 S    
C34   I2    2.131261 S    
O33   C16   1.273885 A    
C67   I7    2.138813 S    
O40   C20   1.274322 A    
C157  C161  1.384958 A    
C23   C40   1.471268 S    
C106  H50   1.081925 S    
C159  H67   1.082452 S    
N1    O54   1.301094 A    
C55   C59   1.380227 A    
Zn5   O17   1.932246 S    
C139  C148  1.421663 A    
C31   H7    1.110126 S    
C25   C27   1.549081 S    
C130  C142  1.419520 A    
O28   C5    1.269750 A    
C169  C177  1.422927 A    
C26   C37   1.534892 S    
C1    C146  1.456912 S    
C132  C148  1.420909 A    
H60   C163  1.082487 S    
C164  C168  1.394506 A    
H34   C113  1.082742 S    
O38   C18   1.278689 A    
N4    O59   1.301783 A    
C74   C86   1.420225 A    
C71   C79   1.442065 A    
C81   C90   1.419897 A    
O5    C1    1.274562 A    
C67   C75   1.443238 A    
O32   C9    1.274618 A    
C41   C81   1.418770 A    
C100  C140  1.414739 A    
C29   H5    1.110156 S    
N8    O68   1.301588 A    
Zn15  O51   1.937813 S    
C103  H47   1.077162 S    
Zn11  O28   1.942015 S    
H40   C119  1.082740 S    
C66   I6    2.142095 S    
C26   C34   1.544056 S    
C52   C64   1.380637 A    
C126  C134  1.428627 A    
C51   C63   1.381966 A    
N7    O66   1.301233 A    
C79   C95   1.423203 A    
O8    C4    1.296829 A    
Zn9   O1    1.932479 S    
C162  C166  1.388213 A    
H36   C115  1.082601 S    
C11   C92   1.460528 S    
C70   C78   1.429515 A    
C42   C50   1.386494 A    
C12   C91   1.452233 S    
N2    O55   1.299964 A    
O50   C18   1.275372 A    
C175  C180  1.434506 A    
C103  C111  1.390821 A    
Zn1   O1    1.960375 S    
C118  C126  1.402941 A    
Zn13  O1    1.942377 S    
Zn2   O14   1.932246 S    
C128  N8    1.438556 S    
C36   I4    2.132860 S    
C60   C68   1.397138 A    
C30   C39   1.535646 S    
C97   H41   1.077096 S    
C69   I9    2.138345 S    
C107  C119  1.387179 A    
O39   C19   1.275782 A    
O36   C13   1.276252 A    
C78   C94   1.420999 A    
C105  C117  1.388124 A    
O13   C9    1.283744 A    
H15   C64   1.082971 S    
C114  C122  1.401538 A    
Zn1   O8    1.927834 S    
H59   C164  1.082638 S    
C73   C89   1.423304 A    
Zn2   O7    1.927831 S    
C169  C173  1.416445 A    
H13   C62   1.082954 S    
Zn3   O6    1.930052 S    
O18   C14   1.284047 A    
O31   C10   1.273702 A    
C102  C142  1.415042 A    
C17   C178  1.486086 S    
C166  H70   1.075669 S    
C30   H6    1.110216 S    
C32   C40   1.538635 S    
H10   C57   1.082994 S    
C140  C147  1.422362 A    
Zn14  O30   1.939057 S    
Zn15  O3    1.942377 S    
Zn11  O3    1.932479 S    
C134  C138  1.397808 A    
O41   C21   1.282371 A    
C160  C164  1.386460 A    
C129  C145  1.427188 A    
C98   C138  1.415149 A    
N6    O64   1.302004 A    
C44   C52   1.383460 A    
C31   C39   1.537978 S    
C121  N1    1.435211 S    
Zn2   O2    1.960377 S    
C155  C175  1.425131 A    
C125  N5    1.438871 S    
Zn8   O20   1.931566 S    
C78   C82   1.412803 A    
C156  C176  1.415640 A    
C10   C89   1.447789 S    
C124  N4    1.440820 S    
C104  C144  1.414459 A    
C142  C149  1.421663 A    
C80   C96   1.422217 A    
C31   C36   1.544120 S    
C97   C105  1.390406 A    
C28   C33   1.543977 S    
H11   C60   1.083082 S    
H12   C59   1.083003 S    
H39   C120  1.081941 S    
N5    O62   1.302042 A    
C115  C123  1.403508 A    
C54   H30   1.082145 S    
C153  C157  1.391056 A    
H37   C118  1.082611 S    
C8    C151  1.470469 S    
C123  N3    1.439406 S    
C158  C162  1.382427 A    
C86   C93   1.420537 A    
C155  C159  1.394339 A    
O7    C3    1.289024 A    
C156  C160  1.390004 A    
C54   C58   1.382308 A    
O19   C15   1.278601 A    
C5    C150  1.476210 S    
C41   H17   1.081170 S    
C32   C35   1.544152 S    
C136  C140  1.418337 A    
Zn10  O23   1.942013 S    
C16   C95   1.447633 S    
C35   C39   1.531798 S    
N3    O57   1.301822 A    
C72   I12   2.143147 S    
C99   C107  1.391279 A    
C135  C151  1.426726 A    
Zn15  O36   1.941601 S    
C29   C40   1.536751 S    
O15   C11   1.287734 A    
O42   C22   1.283139 A    
C51   H27   1.082617 S    
C133  C149  1.427328 A    
Zn4   O1    1.956689 S    
C132  C144  1.400027 A    
C30   C32   1.549118 S    
Zn9   O37   1.942857 S    
Zn8   O9    1.930055 S    
O12   C8    1.277725 A    
Zn11  O39   1.942857 S    
C53   C57   1.381805 A    
C21   C38   1.471288 S    
C82   C89   1.414245 A    
C66   C74   1.439906 A    
C56   C60   1.381956 A    
C42   C82   1.420301 A    
Zn5   O3    1.960375 S    
C48   C56   1.385636 A    
Zn6   O4    1.960377 S    
C137  C146  1.412072 A    
C100  H44   1.075668 S    
C117  C125  1.402964 A    
C58   C66   1.396781 A    
C50   H26   1.082231 S    
C32   H8    1.110149 S    
C173  C178  1.422375 A    
C46   C86   1.418462 A    
C14   C93   1.455055 S    
Zn9   O24   1.942015 S    
C165  C169  1.419837 A    
N1    O53   1.301147 A    
C24   C39   1.470359 S    
C111  C115  1.388864 A    
Zn3   O42   1.943191 S    
Zn6   O18   1.932246 S    
C168  C172  1.423094 A    
Zn7   O4    1.956688 S    
O21   C4    1.267717 A    
C113  C121  1.400298 A    
C64   C72   1.397442 A    
C171  C175  1.403246 A    
C172  C176  1.401120 A    
C144  C151  1.416153 A    
C101  C141  1.417324 A    
N7    O65   1.300268 A    
C68   C76   1.433734 A    
C112  H56   1.082546 S    
C43   H19   1.081854 S    
Zn14  O2    1.942378 S    
C163  C167  1.389096 A    
C44   H20   1.081850 S    
C156  H64   1.082844 S    
C57   C65   1.397683 A    
Zn13  O49   1.937813 S    
O44   C21   1.281964 A    
C98   H42   1.080914 S    
C174  C177  1.420451 A    
C35   I3    2.135722 S    
C45   C85   1.416958 A    
C27   C37   1.536854 S    
Zn12  O27   1.942013 S    
C116  C124  1.402620 A    
N4    O60   1.301859 A    
C22   C37   1.469507 S    
Zn3   O2    1.956688 S    
C123  C131  1.430837 A    
H14   C61   1.082935 S    
C25   H1    1.110238 S    
C18   C177  1.486051 S    
O46   C24   1.282681 A    
O47   C24   1.281057 A    
Zn16  O52   1.937815 S    
O9    C5    1.291477 A    
Zn8   O45   1.943191 S    
C61   C69   1.396700 A    
C172  C180  1.433225 A    
O27   C6    1.265301 A    
C100  C108  1.390001 A    
C75   C91   1.423133 A    
C76   C92   1.422450 A    
C129  C141  1.417720 A    
C106  C118  1.389731 A    
C154  H62   1.078042 S    
C2    C145  1.461432 S    
Zn1   O13   1.932246 S    
C29   C31   1.550539 S    
C110  C114  1.385734 A    
C53   H29   1.081697 S    
O24   C1    1.276807 A    
C131  C143  1.398482 A    
C47   C55   1.383052 A    
N2    O56   1.300229 A    
H33   C114  1.082038 S    
H57   C162  1.082867 S    
C70   I10   2.113485 S    
O43   C22   1.280257 A    
Zn4   O41   1.943191 S    
Zn3   O15   1.931565 S    
Zn5   O12   1.927834 S    
Zn6   O11   1.927831 S    
C126  N6    1.440945 S    
Zn9   O21   1.941671 S    
Zn14  O50   1.937815 S    
C29   C35   1.544953 S    
C56   H32   1.081717 S    
O35   C14   1.274962 A    
Zn12  O40   1.942854 S    
C27   H3    1.110211 S    
C170  C178  1.422810 A    
C125  C133  1.431194 A    
C157  H65   1.082775 S    
C154  C158  1.390964 A    
O52   C20   1.273401 A    
C159  C163  1.385312 A    
C87   C96   1.420009 A    
C42   H18   1.081527 S    
C160  H68   1.082407 S    
C153  C173  1.419910 A    
C85   C94   1.419954 A    
C112  C116  1.390921 A    
C124  C132  1.427373 A    
C6    C149  1.476756 S    
C41   C49   1.385414 A    
O22   C3    1.275952 A    
C26   H2    1.110224 S    
Zn7   O19   1.931565 S    
C33   I1    2.131690 S    
Zn13  O32   1.941601 S    
C46   H22   1.081224 S    
O49   C17   1.276187 A    
Zn14  O31   1.941601 S    
C119  C127  1.401568 A    
O51   C19   1.277630 A    
C102  C110  1.388790 A    
C103  C143  1.414574 A    
C128  C136  1.429773 A    
Zn4   O5    1.930055 S    
N8    O67   1.300238 A    
C43   C51   1.384287 A    
O17   C13   1.287315 A    
O20   C16   1.280783 A    
C30   C36   1.544029 S    
O10   C6    1.296163 A    
O23   C2    1.276972 A    
O6    C2    1.277021 A    
Zn11  O25   1.941671 S    
Zn10  O38   1.942854 S    
C135  C139  1.416322 A    
C3    C148  1.477926 S    
C120  C128  1.401163 A    
O14   C10   1.282512 A    
C7    C152  1.456095 S    
C72   C80   1.443714 A    
C20   C179  1.463059 S    
C110  H54   1.082991 S    
C105  H49   1.082690 S    
C44   C84   1.419133 A    
C65   C73   1.441682 A    
C77   C93   1.420461 A    
C108  H52   1.082833 S    
O45   C23   1.283934 A    
C83   C92   1.420347 A    
