data_mof_unit_4321.cif
_audit_creation_date              2012-10-26T21:33:02-0400
_audit_creation_method            fapswitch 2.2
_symmetry_space_group_name_H-M    P1
_symmetry_Int_Tables_number       1
_space_group_crystal_system       triclinic
_cell_length_a                    28.119678
_cell_length_b                    18.329116
_cell_length_c                    17.0773
_cell_angle_alpha                 89.687794
_cell_angle_beta                  61.204226
_cell_angle_gamma                 89.408878
_cell_volume                      7712.96965679

loop_
_atom_site_label
_atom_site_type_symbol
_atom_type_description
_atom_site_fract_x
_atom_site_fract_y
_atom_site_fract_z
_atom_type_partial_charge
C1    C     C_R   0.701538 0.267378 0.676338 0.942879
C2    C     C_R   0.976677 0.622014 0.418737 -0.221616
C3    C     C_R   0.073431 0.899165 0.935043 0.933082
C4    C     C_R   0.571939 0.602857 0.936433 0.917490
C5    C     C_R   0.426880 0.399056 0.065114 0.924516
C6    C     C_R   0.427759 0.602726 0.063439 0.917262
C7    C     C_R   0.573704 0.399461 0.934835 0.934565
C8    C     C_R   0.547242 0.997325 0.509118 0.033557
C9    C     C_R   0.452989 0.002562 0.489707 0.033128
C10   C     C_R   0.046196 0.497941 0.510031 0.032344
C11   C     C_R   0.952172 0.503068 0.490430 0.032839
C12   C     C_R   0.538591 0.057021 0.463882 0.044755
C13   C     C_R   0.919362 0.391087 0.575637 -0.215839
C14   C     C_R   0.461644 0.942853 0.534952 0.044641
C15   C     C_R   0.490399 0.060760 0.456291 0.038706
C16   C     C_R   0.509944 0.939009 0.542178 0.036960
C17   C     C_R   0.037379 0.557950 0.465461 0.044294
C18   C     C_R   0.960825 0.443319 0.535547 0.044786
C19   C     C_R   0.989463 0.561410 0.457253 0.038995
C20   C     C_R   0.009250 0.439234 0.542127 0.036805
C21   C     C_R   0.606259 0.934775 0.558159 0.019033
C22   C     C_R   0.393977 0.065222 0.440684 0.017080
C23   C     C_R   0.370534 0.944814 0.505047 -0.008099
C24   C     C_R   0.078346 0.610938 0.427277 -0.217142
C25   C     C_R   0.629341 0.055364 0.494936 -0.006474
C26   C     C_R   0.105978 0.434339 0.556363 0.021875
C27   C     C_R   0.893637 0.565278 0.440433 0.016714
C28   C     C_R   0.869883 0.445170 0.505684 -0.008676
C29   C     C_R   0.127706 0.556497 0.497401 -0.012534
C30   C     C_R   0.654787 0.934431 0.564708 -0.202983
C31   C     C_R   0.345327 0.065571 0.434571 -0.193253
C32   C     C_R   0.332309 0.940169 0.472859 -0.239729
C33   C     C_R   0.667558 0.059938 0.527252 -0.235408
C34   C     C_R   0.154712 0.434055 0.562003 -0.301737
C35   C     C_R   0.523115 0.878070 0.579653 -0.229487
C36   C     C_R   0.845158 0.565596 0.434121 -0.193096
C37   C     C_R   0.831977 0.440280 0.473015 -0.241118
C38   C     C_R   0.166393 0.560334 0.528903 -0.229353
C39   C     C_R   0.676849 0.000307 0.569507 0.386808
C40   C     C_R   0.323223 0.999586 0.430051 0.385500
C41   C     C_R   0.175170 0.500083 0.570769 0.402975
C42   C     C_R   0.822946 0.499586 0.429942 0.385614
C43   C     C_R   0.593806 0.996070 0.521540 0.072371
C44   C     C_R   0.406304 0.003958 0.477695 0.072534
C45   C     C_R   0.092708 0.496587 0.522377 0.074583
C46   C     C_R   0.477401 0.121574 0.418315 -0.220763
C47   C     C_R   0.905678 0.504279 0.478137 0.072163
C48   C     C_R   0.070594 0.375116 0.583729 -0.159453
C49   C     C_R   0.929611 0.623928 0.411017 -0.151381
C50   C     C_R   0.874646 0.392409 0.561584 -0.170131
C51   C     C_R   0.122556 0.609793 0.442539 -0.161980
C52   C     C_R   0.570461 0.876022 0.586690 -0.153340
C53   C     C_R   0.429994 0.123875 0.411423 -0.151126
C54   C     C_R   0.375545 0.891848 0.560466 -0.170136
C55   C     C_R   0.624260 0.108380 0.439747 -0.164321
C56   C     C_3   0.741643 0.003426 0.618004 0.178575
C57   C     C_R   0.420242 0.890474 0.574614 -0.214992
C58   C     C_3   0.746860 0.949982 0.681886 -0.863902
C59   C     C_3   0.259703 0.996427 0.378929 0.175285
C60   C     C_3   0.255852 0.050667 0.314449 -0.857989
C61   C     C_3   0.181879 0.468440 0.696716 0.133092
C62   C     C_3   0.198389 0.503164 0.760408 -0.891627
C63   C     C_3   0.759269 0.496407 0.379184 0.175762
C64   C     C_3   0.755437 0.550601 0.314658 -0.859353
C65   C     C_3   0.595713 0.301554 0.059462 -0.366328
C66   C     C_3   0.538945 0.269691 0.091171 -0.336133
C67   C     C_3   0.504287 0.274283 0.192584 -0.841914
C68   C     C_R   0.579853 0.109599 0.424847 -0.215228
C69   C     C_3   0.384528 0.672312 0.945776 -0.351761
C70   C     C_3   0.366264 0.604269 0.914908 -0.280416
C71   C     C_3   0.408994 0.579511 0.822006 -0.903960
C72   C     C_3   0.404640 0.298162 0.945482 -0.370200
C73   C     C_3   0.458778 0.260448 0.923408 -0.355753
C74   C     C_3   0.496567 0.256885 0.822728 -0.823254
C75   C     C_3   0.614373 0.678307 0.051832 -0.356913
C76   C     C_3   0.631007 0.612398 0.089945 -0.286145
C77   C     C_3   0.587543 0.594382 0.184958 -0.903010
C78   C     C_3   0.094686 0.800072 0.059311 -0.367269
C79   C     C_R   0.708045 0.241013 0.962843 0.138234
C80   C     C_3   0.038255 0.767825 0.089049 -0.339402
C81   C     C_3   0.003087 0.770120 0.190494 -0.843015
C82   C     C_3   0.884124 0.171322 0.945809 -0.353392
C83   C     C_3   0.865964 0.102994 0.915280 -0.279724
C84   C     C_3   0.908267 0.079024 0.821727 -0.902199
C85   C     C_3   0.905361 0.797696 0.944894 -0.369398
C86   C     C_3   0.959624 0.760404 0.922871 -0.355824
C87   C     C_3   0.997349 0.756551 0.822185 -0.830133
C88   C     C_3   0.112664 0.179411 0.053192 -0.357424
C89   C     C_3   0.129761 0.113959 0.091304 -0.283901
C90   C     C_R   0.272166 0.719961 0.047976 0.154765
C91   C     C_3   0.086281 0.095405 0.186112 -0.904782
C92   C     C_3   0.679763 0.444505 0.736036 0.104397
C93   C     C_3   0.676129 0.501681 0.674239 -0.730305
C94   C     C_3   0.437452 0.738582 0.191959 0.131838
C95   C     C_3   0.466490 0.740420 0.247436 -0.805794
C96   C     C_3   0.327459 0.450049 0.270135 0.105261
C97   C     C_3   0.337574 0.502458 0.329160 -0.688129
C98   C     C_3   0.563117 0.730608 0.798505 0.150880
C99   C     C_3   0.528470 0.718043 0.753764 -0.854393
C100  C     C_3   0.178295 0.944807 0.735298 0.107312
C101  C     C_R   0.288662 0.256309 0.034060 0.123084
C102  C     C_3   0.173587 0.001326 0.673821 -0.728370
C103  C     C_3   0.937063 0.239110 0.191784 0.130515
C104  C     C_3   0.965796 0.241681 0.247704 -0.806719
C105  C     C_3   0.828060 0.949047 0.270712 0.123521
C106  C     C_3   0.840068 0.002266 0.326797 -0.733946
C107  C     C_3   0.063213 0.230466 0.797339 0.150588
C108  C     C_3   0.028827 0.217367 0.752245 -0.853700
C109  C     C_3   0.734936 0.171263 0.790521 -0.333596
C110  C     C_3   0.794604 0.193292 0.753928 -0.298469
C111  C     C_3   0.833164 0.132961 0.696309 -0.907808
C112  C     C_R   0.296256 0.727684 0.324446 0.928998
C113  C     C_R   0.729637 0.718550 0.945425 0.158793
C114  C     C_3   0.224639 0.755086 0.235073 -0.339424
C115  C     C_3   0.224711 0.838934 0.236762 -0.287690
C116  C     C_3   0.168795 0.869541 0.301797 -0.921465
C117  C     C_3   0.229218 0.237595 0.227177 -0.351531
C118  C     C_3   0.188252 0.298977 0.278074 -0.313547
C119  C     C_3   0.130731 0.269671 0.331371 -0.857641
C120  C     C_3   0.782518 0.703312 0.749280 -0.343245
C121  C     C_3   0.808495 0.778209 0.741561 -0.303709
C122  C     C_3   0.865692 0.780783 0.662077 -0.882822
C123  C     C_3   0.242921 0.680725 0.787649 -0.347747
C124  C     C_R   0.208064 0.743573 0.964461 0.143126
C125  C     C_3   0.300303 0.712056 0.750464 -0.301453
C126  C     C_3   0.343360 0.657250 0.689791 -0.889763
C127  C     C_3   0.724733 0.255879 0.234565 -0.341151
C128  C     C_3   0.725735 0.339694 0.235001 -0.289568
C129  C     C_3   0.669878 0.371567 0.298089 -0.921790
C130  C     C_3   0.729784 0.736766 0.226228 -0.351476
C131  C     C_3   0.688834 0.798349 0.276389 -0.315126
C132  C     C_3   0.631231 0.769251 0.329351 -0.858871
C133  C     C_3   0.281133 0.215889 0.753386 -0.338157
C134  C     C_3   0.301494 0.294619 0.745393 -0.299730
C135  C     C_R   0.771676 0.218663 0.047775 0.152572
C136  C     C_3   0.359886 0.301364 0.670384 -0.876577
C137  C     C_R   0.789793 0.754293 0.032659 0.120838
C138  C     C_R   0.227375 0.221634 0.948725 0.161360
C139  C     C_R   0.743382 0.295397 0.961090 -0.199961
C140  C     C_R   0.236562 0.665686 0.050040 -0.230028
C141  C     C_R   0.255930 0.309537 0.023511 -0.186749
C142  C     C_R   0.762535 0.665695 0.956491 -0.223526
C143  C     C_R   0.242676 0.798298 0.964357 -0.200116
C144  C     C_R   0.294993 0.274356 0.325710 0.922791
C145  C     C_R   0.735640 0.164540 0.050935 -0.231337
C146  C     C_R   0.757849 0.807408 0.019883 -0.189728
C147  C     C_R   0.260738 0.168565 0.958178 -0.226495
C148  C     C_R   0.775011 0.284293 0.003015 -0.217558
C149  C     C_R   0.204716 0.677364 0.008385 -0.224358
C150  C     C_R   0.225272 0.292225 0.981647 -0.225630
C151  C     C_R   0.792093 0.683284 0.000451 -0.218947
C152  C     C_R   0.274692 0.786474 0.005398 -0.219684
C153  C     C_R   0.704026 0.175594 0.008646 -0.220020
C154  C     C_R   0.727845 0.789616 0.976977 -0.224061
C155  C     C_R   0.705227 0.723921 0.673582 0.918000
C156  C     C_R   0.290893 0.185629 0.001164 -0.218798
C157  C     C_R   0.629320 0.300988 0.957416 -0.007069
C158  C     C_R   0.357511 0.678418 0.047522 -0.008560
C159  C     C_R   0.367851 0.305886 0.046476 -0.001293
C160  C     C_R   0.642595 0.678271 0.949919 -0.010607
C161  C     C_R   0.129127 0.800912 0.957364 -0.007919
C162  C     C_R   0.857154 0.177718 0.047552 -0.008060
C163  C     C_R   0.868431 0.805181 0.045898 -0.001888
C164  C     C_R   0.141342 0.179884 0.951220 -0.011844
C165  C     C_R   0.615526 0.343730 0.900845 -0.224179
C166  C     C_R   0.202000 0.768231 0.676216 0.933511
C167  C     C_R   0.385363 0.658702 0.095960 -0.244924
C168  C     C_R   0.383584 0.346393 0.101518 -0.216273
C169  C     C_R   0.614414 0.658071 0.902561 -0.242523
C170  C     C_R   0.115275 0.843528 0.900843 -0.222784
C171  C     C_R   0.885122 0.158395 0.095971 -0.244424
C172  C     C_R   0.883920 0.845900 0.101135 -0.215026
C173  C     C_R   0.113947 0.158664 0.902987 -0.242718
C174  C     C_R   0.645256 0.337656 0.808790 0.353060
C175  C     C_R   0.368226 0.685558 0.180972 0.342388
C176  C     C_R   0.353772 0.342823 0.193786 0.349791
C177  C     C_R   0.796214 0.227643 0.324412 0.934662
C178  C     C_R   0.632343 0.682483 0.816239 0.342396
C179  C     C_R   0.145095 0.837788 0.808757 0.353449
C180  C     C_R   0.868023 0.185416 0.180875 0.342558
C181  C     C_R   0.854121 0.842186 0.193381 0.347295
C182  C     C_R   0.132023 0.183029 0.816588 0.341046
C183  C     C_R   0.679297 0.278165 0.772287 -0.221872
C184  C     C_R   0.315941 0.713165 0.229226 -0.213166
C185  C     C_R   0.313024 0.292388 0.232128 -0.223335
C186  C     C_R   0.685898 0.704126 0.766692 -0.210411
C187  C     C_R   0.180459 0.779655 0.771941 -0.224482
C188  C     C_R   0.795114 0.774118 0.325555 0.923725
C189  C     C_R   0.815764 0.213043 0.229138 -0.214895
C190  C     C_R   0.813338 0.791803 0.231707 -0.225576
C191  C     C_R   0.185195 0.206481 0.767777 -0.212587
C192  C     C_R   0.696386 0.236523 0.826052 -0.011857
C193  C     C_R   0.282648 0.724071 0.186527 -0.017857
C194  C     C_R   0.287611 0.266231 0.181986 -0.001355
C195  C     C_R   0.720766 0.705400 0.806203 -0.019301
C196  C     C_R   0.199148 0.740182 0.825209 -0.015455
C197  C     C_R   0.782423 0.223859 0.186405 -0.017891
C198  C     C_R   0.788165 0.765312 0.181260 -0.000911
C199  C     C_R   0.204863 0.224797 0.674032 0.903507
C200  C     C_R   0.219352 0.210786 0.808626 -0.020957
C201  C     C_R   0.675413 0.255337 0.916803 0.006030
C202  C     C_R   0.304861 0.708183 0.094512 0.010657
C203  C     C_R   0.315989 0.273633 0.087706 0.003236
C204  C     C_R   0.697245 0.700456 0.900130 0.015295
C205  C     C_R   0.176405 0.757447 0.916775 0.005737
C206  C     C_R   0.804456 0.207408 0.094471 0.011148
C207  C     C_R   0.816721 0.772442 0.086871 0.004371
C208  C     C_R   0.195465 0.204182 0.902481 0.012104
C209  C     C_R   0.695215 0.127226 0.522757 0.929241
C210  C     C_R   0.022946 0.377574 0.577722 -0.232483
C211  C     C_R   0.304727 0.872798 0.477378 0.942311
C212  C     C_R   0.309717 0.130134 0.460488 0.866059
C213  C     C_R   0.690297 0.869859 0.539405 0.870880
C214  C     C_R   0.195103 0.627200 0.522834 0.929497
C215  C     C_R   0.804674 0.372794 0.477363 0.948495
C216  C     C_R   0.809689 0.630194 0.460301 0.866416
C217  C     C_R   0.190467 0.369962 0.537996 0.884240
C218  C     C_R   0.071831 0.102950 0.936516 0.918801
C219  C     C_R   0.927015 0.898896 0.064967 0.924413
C220  C     C_R   0.927672 0.102637 0.063486 0.918053
H1    H     H_    0.078329 0.327760 0.613794 0.167669
H2    H     H_    0.001741 0.669744 0.395139 0.136204
H3    H     H_    0.886553 0.763971 0.913674 0.201016
H4    H     H_    0.911796 0.851395 0.911326 0.222092
H5    H     H_    0.077291 0.143549 0.230411 0.251497
H6    H     H_    0.048557 0.077770 0.186278 0.270508
H7    H     H_    0.100931 0.050086 0.212626 0.240302
H8    H     H_    0.137997 0.064910 0.048533 0.234339
H9    H     H_    0.167438 0.127040 0.093637 0.211865
H10   H     H_    0.121104 0.230857 0.078170 0.177038
H11   H     H_    0.068008 0.180743 0.079891 0.208748
H12   H     H_    0.721592 0.420823 0.702342 0.104277
H13   H     H_    0.919947 0.348809 0.619300 0.132965
H14   H     H_    0.672501 0.472163 0.798855 0.122121
H15   H     H_    0.635230 0.527596 0.706567 0.285463
H16   H     H_    0.707109 0.544375 0.659273 0.190158
H17   H     H_    0.683519 0.475796 0.610698 0.234228
H18   H     H_    0.415670 0.791759 0.201344 0.130386
H19   H     H_    0.468334 0.732149 0.120342 0.103200
H20   H     H_    0.487366 0.687506 0.241927 0.249356
H21   H     H_    0.497013 0.784634 0.223113 0.195929
H22   H     H_    0.436754 0.750610 0.318702 0.270436
H23   H     H_    0.284477 0.431893 0.307903 0.109217
H24   H     H_    0.077888 0.653832 0.384258 0.132714
H25   H     H_    0.333625 0.480171 0.209106 0.120609
H26   H     H_    0.379945 0.522507 0.293197 0.269007
H27   H     H_    0.309296 0.549792 0.346880 0.197173
H28   H     H_    0.330714 0.474448 0.391539 0.251933
H29   H     H_    0.584381 0.783662 0.774676 0.125128
H30   H     H_    0.535871 0.732916 0.872150 0.098749
H31   H     H_    0.506891 0.665565 0.776825 0.256724
H32   H     H_    0.498435 0.763106 0.770393 0.195038
H33   H     H_    0.554542 0.714770 0.680230 0.255065
H34   H     H_    0.220348 0.921889 0.700990 0.102926
H35   H     H_    0.498165 0.830176 0.602720 0.138912
H36   H     H_    0.171199 0.972845 0.797811 0.122631
H37   H     H_    0.132430 0.026478 0.706732 0.284909
H38   H     H_    0.204185 0.044687 0.658224 0.193630
H39   H     H_    0.180814 0.975052 0.610567 0.232992
H40   H     H_    0.915092 0.292082 0.200783 0.129587
H41   H     H_    0.968127 0.232625 0.120285 0.102447
H42   H     H_    0.986740 0.188937 0.242782 0.249513
H43   H     H_    0.996215 0.286024 0.223308 0.195543
H44   H     H_    0.935855 0.252116 0.318805 0.271356
H45   H     H_    0.785234 0.930914 0.311058 0.106056
H46   H     H_    0.502557 0.169235 0.394705 0.136228
H47   H     H_    0.832695 0.978491 0.210156 0.118156
H48   H     H_    0.810879 0.048732 0.347442 0.197671
H49   H     H_    0.836207 0.974376 0.387424 0.230323
H50   H     H_    0.881922 0.023499 0.287433 0.279195
H51   H     H_    0.084569 0.283419 0.773055 0.109326
H52   H     H_    0.035753 0.233337 0.870891 0.097916
H53   H     H_    0.007017 0.165087 0.775893 0.256189
H54   H     H_    0.998965 0.262531 0.768002 0.192767
H55   H     H_    0.055117 0.213526 0.678802 0.254920
H56   H     H_    0.824826 0.081394 0.735049 0.260236
H57   H     H_    0.420825 0.847923 0.617953 0.134137
H58   H     H_    0.828535 0.123878 0.636120 0.254872
H59   H     H_    0.875701 0.149218 0.674071 0.243803
H60   H     H_    0.803675 0.244021 0.713566 0.226702
H61   H     H_    0.802740 0.204172 0.810235 0.219875
H62   H     H_    0.724591 0.130130 0.844147 0.173471
H63   H     H_    0.728355 0.141467 0.740415 0.217795
H64   H     H_    0.138188 0.851246 0.282809 0.258114
H65   H     H_    0.156679 0.851093 0.370918 0.261379
H66   H     H_    0.169971 0.930095 0.300113 0.242376
H67   H     H_    0.254796 0.859085 0.255808 0.233355
H68   H     H_    0.579373 0.152268 0.381573 0.132553
H69   H     H_    0.236661 0.860353 0.168922 0.207399
H70   H     H_    0.200001 0.738228 0.203730 0.184501
H71   H     H_    0.201018 0.731021 0.302110 0.203540
H72   H     H_    0.118037 0.243433 0.285986 0.249086
H73   H     H_    0.128635 0.229285 0.381661 0.259213
H74   H     H_    0.102235 0.315335 0.366888 0.256658
H75   H     H_    0.198932 0.327217 0.324764 0.235039
H76   H     H_    0.189095 0.340197 0.229436 0.202474
H77   H     H_    0.217511 0.214707 0.179120 0.196464
H78   H     H_    0.224425 0.189843 0.270027 0.221316
H79   H     H_    0.676389 0.133536 0.011841 0.135786
H80   H     H_    0.891672 0.737776 0.668684 0.260935
H81   H     H_    0.864461 0.772585 0.598658 0.276515
H82   H     H_    0.883821 0.834853 0.659597 0.235179
H83   H     H_    0.783477 0.821848 0.733938 0.237181
H84   H     H_    0.811123 0.789830 0.803018 0.220679
H85   H     H_    0.800095 0.663590 0.777765 0.174775
H86   H     H_    0.794490 0.680316 0.682230 0.216335
H87   H     H_    0.340091 0.605850 0.726743 0.259971
H88   H     H_    0.338305 0.645062 0.630576 0.269487
H89   H     H_    0.384343 0.680456 0.666358 0.237183
H90   H     H_    0.301455 0.829098 0.004084 0.127114
H91   H     H_    0.304405 0.762840 0.712148 0.221270
H92   H     H_    0.308187 0.725859 0.806335 0.219246
H93   H     H_    0.236597 0.639786 0.839785 0.178564
H94   H     H_    0.239099 0.647791 0.737029 0.233823
H95   H     H_    0.639702 0.353696 0.277926 0.258763
H96   H     H_    0.656679 0.353685 0.367781 0.260595
H97   H     H_    0.671761 0.432077 0.295544 0.243321
H98   H     H_    0.755410 0.359421 0.255194 0.233611
H99   H     H_    0.738792 0.360492 0.166508 0.207547
H100  H     H_    0.699975 0.239244 0.203349 0.185116
H101  H     H_    0.315328 0.143707 0.009972 0.142791
H102  H     H_    0.700803 0.232608 0.301977 0.204210
H103  H     H_    0.618717 0.742935 0.283784 0.249572
H104  H     H_    0.628864 0.728979 0.379937 0.259541
H105  H     H_    0.602764 0.815037 0.364488 0.255495
H106  H     H_    0.699310 0.826791 0.323207 0.233569
H107  H     H_    0.689973 0.839344 0.227307 0.202885
H108  H     H_    0.718282 0.713570 0.178060 0.196675
H109  H     H_    0.724812 0.689326 0.269590 0.221273
H110  H     H_    0.386962 0.263991 0.682664 0.257045
H111  H     H_    0.362506 0.287856 0.605057 0.271493
H112  H     H_    0.922599 0.670664 0.378718 0.165832
H113  H     H_    0.703003 0.831161 0.968565 0.133348
H114  H     H_    0.373898 0.358225 0.667488 0.237601
H115  H     H_    0.275393 0.333373 0.732559 0.236391
H116  H     H_    0.300158 0.311219 0.808738 0.216791
H117  H     H_    0.300922 0.181333 0.783086 0.177816
H118  H     H_    0.295733 0.190534 0.686715 0.216680
H119  H     H_    0.177743 0.634966 0.009933 0.136069
H120  H     H_    0.802131 0.326813 0.000654 0.125803
H121  H     H_    0.816054 0.641477 0.010651 0.142078
H122  H     H_    0.199992 0.333859 0.974555 0.129139
H123  H     H_    0.746642 0.346404 0.926572 0.129854
H124  H     H_    0.233665 0.614404 0.083797 0.133820
H125  H     H_    0.253254 0.364047 0.049589 0.128545
H126  H     H_    0.764327 0.610541 0.932739 0.128052
H127  H     H_    0.245432 0.849835 0.931129 0.130090
H128  H     H_    0.843719 0.351962 0.596081 0.157780
H129  H     H_    0.732140 0.113890 0.086196 0.134270
H130  H     H_    0.755234 0.862239 0.045072 0.129646
H131  H     H_    0.262727 0.113770 0.933299 0.129625
H132  H     H_    0.756900 0.056225 0.627418 0.162781
H133  H     H_    0.768845 0.987467 0.547363 0.141101
H134  H     H_    0.790422 0.938626 0.659278 0.200769
H135  H     H_    0.728007 0.973671 0.750158 0.235144
H136  H     H_    0.725935 0.898392 0.684726 0.281788
H137  H     H_    0.231921 0.012463 0.449367 0.141384
H138  H     H_    0.244530 0.943759 0.368582 0.172232
H139  H     H_    0.153090 0.650406 0.408896 0.153724
H140  H     H_    0.277238 0.101624 0.312468 0.280204
H141  H     H_    0.275089 0.027170 0.246064 0.237917
H142  H     H_    0.212600 0.063213 0.335797 0.193408
H143  H     H_    0.195596 0.410610 0.687446 0.154095
H144  H     H_    0.136602 0.470087 0.729827 0.109897
H145  H     H_    0.243085 0.510277 0.727151 0.267329
H146  H     H_    0.177472 0.556665 0.782938 0.240924
H147  H     H_    0.185881 0.467793 0.820049 0.202271
H148  H     H_    0.731590 0.512600 0.449600 0.141215
H149  H     H_    0.743946 0.443770 0.369080 0.172151
H150  H     H_    0.577858 0.829290 0.618091 0.166472
H151  H     H_    0.776939 0.601488 0.312514 0.279938
H152  H     H_    0.774568 0.527006 0.246329 0.237823
H153  H     H_    0.712191 0.563281 0.336105 0.193763
H154  H     H_    0.523755 0.243204 0.225772 0.240095
H155  H     H_    0.498746 0.332112 0.214652 0.272053
H156  H     H_    0.463718 0.250686 0.213223 0.253469
H157  H     H_    0.517333 0.299020 0.060572 0.211094
H158  H     H_    0.543049 0.211542 0.070498 0.211871
H159  H     H_    0.614970 0.267785 0.090715 0.197281
H160  H     H_    0.593665 0.357006 0.086518 0.220184
H161  H     H_    0.422835 0.170851 0.379651 0.165452
H162  H     H_    0.419366 0.625038 0.773450 0.257294
H163  H     H_    0.446182 0.560361 0.823358 0.270618
H164  H     H_    0.392951 0.533571 0.799774 0.237481
H165  H     H_    0.357677 0.558248 0.962404 0.231799
H166  H     H_    0.328454 0.616901 0.912149 0.216345
H167  H     H_    0.375631 0.721768 0.917086 0.171609
H168  H     H_    0.429218 0.673930 0.916868 0.209513
H169  H     H_    0.477445 0.225739 0.789742 0.251051
H170  H     H_    0.506077 0.312806 0.794179 0.271763
H171  H     H_    0.535118 0.229171 0.809056 0.252889
H172  H     H_    0.344718 0.851352 0.594716 0.157153
H173  H     H_    0.480023 0.289910 0.953874 0.205474
H174  H     H_    0.450770 0.204082 0.950894 0.216628
H175  H     H_    0.385613 0.264599 0.914488 0.201001
H176  H     H_    0.411245 0.351821 0.911776 0.222703
H177  H     H_    0.578939 0.642628 0.228975 0.251706
H178  H     H_    0.549638 0.577196 0.185438 0.270286
H179  H     H_    0.601976 0.548891 0.211580 0.240490
H180  H     H_    0.638633 0.563334 0.047410 0.234153
H181  H     H_    0.668929 0.624717 0.091846 0.211888
H182  H     H_    0.623607 0.729506 0.076158 0.177870
H183  H     H_    0.654895 0.148930 0.406162 0.151453
H184  H     H_    0.569679 0.680519 0.079057 0.208827
H185  H     H_    0.022421 0.738009 0.223129 0.240743
H186  H     H_    0.997063 0.827399 0.214591 0.272577
H187  H     H_    0.962747 0.746393 0.209669 0.252976
H188  H     H_    0.016755 0.798176 0.059014 0.209967
H189  H     H_    0.042868 0.710203 0.066306 0.211021
H190  H     H_    0.113663 0.765869 0.090660 0.197528
H191  H     H_    0.091949 0.855164 0.087675 0.220683
H192  H     H_    0.918043 0.124917 0.773809 0.254993
H193  H     H_    0.945827 0.060067 0.821974 0.268610
H194  H     H_    0.998270 0.329363 0.599669 0.139998
H195  H     H_    0.892150 0.033164 0.799503 0.239269
H196  H     H_    0.858246 0.056815 0.962248 0.232267
H197  H     H_    0.827681 0.114967 0.913815 0.216254
H198  H     H_    0.875139 0.220550 0.916908 0.171109
H199  H     H_    0.928832 0.173190 0.916677 0.209343
H200  H     H_    0.978289 0.724917 0.789468 0.250837
H201  H     H_    0.006639 0.812375 0.793303 0.273687
H202  H     H_    0.036012 0.729205 0.808573 0.249143
H203  H     H_    0.980816 0.790359 0.953038 0.205361
H204  H     H_    0.951819 0.704143 0.950686 0.214625
O1    O     O_R   0.746490 0.236330 0.638080 -0.658595
O2    O     O_R   0.325830 0.813840 0.483730 -0.637470
O3    O     O_R   0.325830 0.186160 0.483730 -0.639266
O4    O     O_R   0.674170 0.813840 0.516270 -0.631555
O5    O     O_R   0.174170 0.686160 0.516270 -0.652822
O6    O     O_R   0.825830 0.313840 0.483730 -0.635268
O7    O     O_R   0.825830 0.686160 0.483730 -0.639316
O8    O     O_R   0.174170 0.313840 0.516270 -0.635274
O9    O     O_R   0.739960 0.127620 0.525000 -0.658386
O10   O     O_R   0.260040 0.872380 0.475000 -0.649435
O11   O     O_R   0.260040 0.127620 0.475000 -0.635410
O12   O     O_R   0.253510 0.763670 0.361920 -0.657720
O13   O     O_R   0.739960 0.872380 0.525000 -0.632243
O14   O     O_R   0.239960 0.627620 0.525000 -0.579221
O15   O     O_R   0.760040 0.372380 0.475000 -0.648354
O16   O     O_R   0.760040 0.627620 0.475000 -0.635553
O17   O     O_R   0.239960 0.372380 0.525000 -0.593825
O18   O     O_R   0.680700 0.294870 0.629350 -0.564933
O19   O     O_R   0.319300 0.705130 0.370650 -0.570390
O20   O     O_R   0.319300 0.294870 0.370650 -0.570235
O21   O     O_R   0.680700 0.705130 0.629350 -0.569455
O22   O     O_R   0.180700 0.794870 0.629350 -0.567587
O23   O     O_R   0.253510 0.236330 0.361920 -0.656950
O24   O     O_R   0.819300 0.205130 0.370650 -0.568396
O25   O     O_R   0.819300 0.794870 0.370650 -0.568822
O26   O     O_R   0.180700 0.205130 0.629350 -0.570739
O27   O     O_R   0.062020 0.072840 0.007170 -0.629964
O28   O     O_R   0.937980 0.927160 0.992830 -0.640876
O29   O     O_R   0.937980 0.072840 0.992830 -0.631264
O30   O     O_R   0.062020 0.927160 0.007170 -0.641558
O31   O     O_R   0.562020 0.572840 0.007170 -0.630344
O32   O     O_R   0.437980 0.427160 0.992830 -0.640312
O33   O     O_R   0.437980 0.572840 0.992830 -0.631060
O34   O     O_R   0.746490 0.763670 0.638080 -0.648613
O35   O     O_R   0.562020 0.427160 0.007170 -0.642077
O36   O     O_R   0.947860 0.073950 0.109290 -0.573847
O37   O     O_R   0.052140 0.926050 0.890710 -0.561876
O38   O     O_R   0.052140 0.073950 0.890710 -0.567940
O39   O     O_R   0.947860 0.926050 0.109290 -0.561922
O40   O     O_R   0.447860 0.573950 0.109290 -0.572076
O41   O     O_R   0.552140 0.426050 0.890710 -0.562122
O42   O     O_R   0.552140 0.573950 0.890710 -0.567668
O43   O     O_R   0.447860 0.426050 0.109290 -0.562407
O44   O     O_3   0.686288 0.011869 0.641379 -0.614444
O45   O     O_R   0.246490 0.736330 0.638080 -0.652376
O46   O     O_3   0.314702 0.987302 0.357395 -0.614321
O47   O     O_3   0.206699 0.505615 0.613287 -0.574257
O48   O     O_3   0.814283 0.487104 0.357472 -0.614951
O49   O     O_3   0.640513 0.390099 0.753865 -0.570221
O50   O     O_3   0.401270 0.679253 0.220184 -0.577525
O51   O     O_3   0.363810 0.390068 0.247403 -0.570735
O52   O     O_3   0.600806 0.672621 0.775082 -0.576109
O53   O     O_3   0.139485 0.889578 0.753989 -0.570052
O54   O     O_3   0.901174 0.179454 0.219922 -0.578067
O55   O     O_3   0.864460 0.889061 0.246971 -0.569590
O56   O     O_R   0.753510 0.263670 0.361920 -0.657374
O57   O     O_3   0.100803 0.172435 0.775004 -0.573916
O58   O     O_R   0.753510 0.736330 0.361920 -0.655435
O59   O     O_R   0.246490 0.263670 0.638080 -0.649563
O60   O     O_R   0.674170 0.186160 0.516270 -0.636426
Zn1   Zn    Zn3+2 0.792340 0.208750 0.507670 0.916453
Zn2   Zn    Zn3+2 0.494040 0.500000 0.919480 0.939129
Zn3   Zn    Zn3+2 0.005960 0.000000 0.080520 0.936695
Zn4   Zn    Zn3+2 0.994040 0.000000 0.919480 0.937983
Zn5   Zn    Zn3+2 0.207660 0.791250 0.492330 0.922498
Zn6   Zn    Zn3+2 0.207660 0.208750 0.492330 0.917222
Zn7   Zn    Zn3+2 0.792340 0.791250 0.507670 0.923889
Zn8   Zn    Zn3+2 0.292340 0.708750 0.507670 0.959446
Zn9   Zn    Zn3+2 0.707660 0.291250 0.492330 0.927500
Zn10  Zn    Zn3+2 0.707660 0.708750 0.492330 0.921367
Zn11  Zn    Zn3+2 0.292340 0.291250 0.507670 0.950932
Zn12  Zn    Zn3+2 0.505960 0.500000 0.080520 0.937985

loop_
_geom_bond_atom_site_label_1
_geom_bond_atom_site_label_2
_ccdc_geom_bond_type
C79   C139  A    
C28   C47   A    
O58   Zn10  S    
C129  H97   S    
C88   H10   S    
C220  O36   A    
C114  C115  S    
C112  C184  S    
C110  H61   S    
C133  H118  S    
C121  H83   S    
C13   C18   A    
C76   H181  S    
C146  H130  S    
C16   C35   A    
O9    Zn1   S    
C187  C196  A    
C92   H12   S    
C184  C193  A    
C117  H77   S    
C113  C142  A    
C214  O14   A    
C151  H121  S    
C127  H102  S    
C1    O1    A    
C37   C42   A    
C14   C57   A    
C110  C111  S    
C126  H89   S    
C11   C47   A    
O8    Zn6   S    
C58   H135  S    
C115  H67   S    
C79   C201  S    
C212  O11   A    
C20   C210  A    
C185  C194  A    
C171  C220  S    
C24   C51   A    
C107  H52   S    
C59   C60   S    
C200  C208  A    
C183  C192  A    
C119  H74   S    
C161  C205  A    
C197  C206  A    
C62   H145  S    
C104  H42   S    
C38   C214  S    
C100  H34   S    
O21   Zn10  S    
C107  O57   S    
O5    Zn5   S    
C158  C167  A    
C156  H101  S    
C4    O31   A    
C42   O48   S    
O38   Zn4   S    
C137  C146  A    
C72   H176  S    
C90   C152  A    
C108  H53   S    
C4    C169  S    
C142  H126  S    
C199  O59   A    
C29   C45   A    
C111  H59   S    
C142  C151  A    
C219  O39   A    
C75   C76   S    
C64   H152  S    
O10   Zn5   S    
C181  C190  A    
C118  H75   S    
C127  H100  S    
C146  C154  A    
C214  O5    A    
C112  O19   A    
C103  H41   S    
C59   O46   S    
O27   Zn3   S    
C164  C173  A    
C1    O18   A    
C163  C172  A    
O35   Zn12  S    
C95   H21   S    
C135  C206  S    
C178  O52   S    
O33   Zn2   S    
C173  C182  A    
C103  O54   S    
C101  C203  S    
C123  C196  S    
C140  H124  S    
C96   H25   S    
C94   O50   S    
C131  H106  S    
C105  C106  S    
C129  H96   S    
C189  C197  A    
C215  O6    A    
C61   H144  S    
C77   H178  S    
C2    C19   A    
C122  H82   S    
C83   H196  S    
C25   C55   A    
C72   C73   S    
C97   H27   S    
C98   H29   S    
C90   C140  A    
C134  H116  S    
C136  H110  S    
C130  C131  S    
C9    C15   A    
C126  H87   S    
O20   Zn11  S    
C30   C213  S    
C71   H163  S    
C130  H109  S    
O3    Zn11  S    
C135  C148  A    
C46   C53   A    
C7    O41   A    
O1    Zn1   S    
C24   H24   S    
C148  H120  S    
C69   C70   S    
C5    O43   A    
C85   H4    S    
C178  C186  A    
C149  H119  S    
C94   H19   S    
C147  H131  S    
C88   C89   S    
C98   C99   S    
C177  O24   A    
C104  H44   S    
C218  O38   A    
C64   H153  S    
C90   C202  S    
C124  C149  A    
C11   C18   A    
C103  H40   S    
C108  H55   S    
C128  C129  S    
C25   C43   A    
C1    C183  S    
C34   C217  S    
C174  O49   S    
C85   C86   S    
C216  O7    A    
C118  H76   S    
C180  C189  A    
C213  O13   A    
C109  H63   S    
C175  O50   S    
C78   C80   S    
C213  O4    A    
C105  H45   S    
C115  C116  S    
C188  C190  S    
C56   H132  S    
C199  O26   A    
C26   C45   A    
C172  C181  A    
C86   H203  S    
C93   H17   S    
C29   C38   A    
C107  C108  S    
C89   C91   S    
C96   O51   S    
O56   Zn9   S    
C153  H79   S    
C66   C67   S    
C35   H35   S    
O26   Zn6   S    
C69   H168  S    
O16   Zn10  S    
C141  C150  A    
C144  C185  S    
C65   H159  S    
C93   H16   S    
O24   Zn1   S    
C139  C148  A    
C114  H70   S    
C162  C171  A    
C220  O29   A    
C191  C200  A    
C38   C41   A    
C164  C208  A    
C192  C201  A    
C157  C165  A    
C32   C211  S    
C138  C208  S    
C82   C162  S    
C165  C174  A    
C88   C164  S    
C60   H141  S    
C102  H38   S    
C123  H93   S    
C219  O28   A    
C79   C153  A    
O13   Zn7   S    
C83   C84   S    
C8    C12   A    
C10   C45   A    
C116  H65   S    
C124  C143  A    
C111  H56   S    
C173  C218  S    
C130  H108  S    
C56   O44   S    
O7    Zn7   S    
C91   H6    S    
C78   H191  S    
C87   H202  S    
C157  C201  A    
C73   H174  S    
C89   H8    S    
C81   H186  S    
C74   H169  S    
C103  C104  S    
C4    O42   A    
C120  C121  S    
C13   H13   S    
C29   C51   A    
C27   C47   A    
C63   H148  S    
C168  C176  A    
C155  O21   A    
C217  O8    A    
C198  C207  A    
C36   C42   A    
C131  H107  S    
C180  O54   S    
O14   Zn8   S    
C105  H47   S    
C155  O34   A    
C133  H117  S    
C67   H156  S    
C106  H48   S    
C57   H57   S    
C170  C179  A    
C212  O3    A    
C83   H197  S    
C100  H36   S    
C117  C118  S    
O15   Zn9   S    
O39   Zn3   S    
C28   C37   A    
C158  C202  A    
C84   H195  S    
C56   C58   S    
C30   C39   A    
C215  O15   A    
C61   C62   S    
O6    Zn1   S    
C216  O16   A    
C145  H129  S    
C105  O55   S    
C13   C50   A    
C211  O2    A    
C58   H136  S    
C106  H49   S    
C8    C16   A    
C82   H199  S    
O37   Zn4   S    
C15   C46   A    
C166  O22   A    
C140  C149  A    
C70   H165  S    
C162  C206  A    
C27   C49   A    
C25   C33   A    
C54   C57   A    
C75   C160  S    
C124  C205  S    
C73   C74   S    
C119  H73   S    
C120  H85   S    
C55   H183  S    
C62   H146  S    
C8    C43   A    
C113  C154  A    
C54   H172  S    
O31   Zn12  S    
C55   C68   A    
C49   H112  S    
C176  C185  A    
C11   C19   A    
C72   C159  S    
C76   H180  S    
C167  C175  A    
C108  H54   S    
C123  C125  S    
C179  C187  A    
C109  C192  S    
C2    H2    S    
C31   C40   A    
C144  O20   A    
C5    C168  S    
C80   H188  S    
O2    Zn8   S    
C59   H138  S    
C31   C212  S    
O28   Zn4   S    
C135  C145  A    
C39   O44   S    
C160  C169  A    
C182  O57   S    
C70   C71   S    
C75   H184  S    
C26   C48   A    
C7    C165  S    
C74   H171  S    
C84   H192  S    
O40   Zn12  S    
C34   C41   A    
O32   Zn2   S    
C100  O53   S    
C127  C197  S    
C110  H60   S    
C129  H95   S    
C92   O49   S    
C61   H143  S    
C67   H154  S    
C77   H177  S    
C66   H157  S    
C120  C195  S    
C107  H51   S    
C166  C187  S    
C121  H84   S    
C65   C157  S    
C97   H26   S    
C98   H30   S    
C86   C87   S    
C195  C204  A    
C101  C156  A    
C152  H90   S    
C117  H78   S    
C176  O51   S    
C138  C150  A    
C23   C44   A    
C119  H72   S    
C9    C14   A    
C96   H23   S    
C126  H88   S    
C98   O52   S    
C181  O55   S    
O18   Zn9   S    
C12   C68   A    
C58   H134  S    
C12   C15   A    
C46   H46   S    
C134  H115  S    
C209  O9    A    
C147  C156  A    
C85   H3    S    
C121  C122  S    
C179  O53   S    
C99   H31   S    
C143  C152  A    
C188  O58   A    
C125  C126  S    
C85   C163  S    
C116  H64   S    
C182  C191  A    
C131  C132  S    
C190  C198  A    
O29   Zn4   S    
C50   H128  S    
C132  H104  S    
C7    O35   A    
C91   H7    S    
C72   H175  S    
C99   H32   S    
C174  C183  A    
C160  C204  A    
C66   H158  S    
C3    C170  S    
C209  O60   A    
C27   C36   A    
C21   C30   A    
C23   C32   A    
C64   H151  S    
C109  C110  S    
C109  H62   S    
O17   Zn11  S    
C217  O17   A    
C163  C207  A    
C92   C93   S    
C5    O32   A    
C122  H80   S    
C95   H20   S    
C75   H182  S    
C94   C95   S    
C193  C202  A    
C95   H22   S    
C3    O37   A    
C88   H11   S    
C86   H204  S    
C82   C83   S    
C139  H123  S    
C35   C52   A    
C120  H86   S    
O43   Zn12  S    
C141  H125  S    
C143  H127  S    
C37   C215  S    
C36   C216  S    
C218  O27   A    
C175  C184  A    
O4    Zn10  S    
C102  H39   S    
C132  H103  S    
C77   H179  S    
C114  C193  S    
C122  H81   S    
C69   H167  S    
C97   H28   S    
C93   H15   S    
O23   Zn6   S    
C114  H71   S    
C33   C39   A    
C53   H161  S    
C191  C199  S    
C188  O25   A    
C150  H122  S    
C71   H164  S    
C48   H1    S    
C10   C17   A    
C60   H142  S    
C159  C168  A    
C113  C204  S    
C196  C205  A    
C118  C119  S    
C117  C194  S    
O34   Zn7   S    
C21   C43   A    
C33   C209  S    
C94   H18   S    
C22   C44   A    
C115  H69   S    
C116  H66   S    
C104  H43   S    
C52   H150  S    
O19   Zn8   S    
C145  C153  A    
C128  H99   S    
C68   H68   S    
C91   H5    S    
C87   H201  S    
C73   H173  S    
C123  H94   S    
O11   Zn6   S    
C81   H185  S    
C74   H170  S    
C26   C34   A    
C22   C53   A    
C177  O56   A    
C17   C24   A    
C177  C189  S    
C22   C31   A    
C166  O45   A    
C63   H149  S    
C111  H58   S    
C186  C195  A    
C76   C77   S    
C40   O46   S    
C28   C50   A    
O30   Zn3   S    
C134  C136  S    
C61   O47   S    
C211  O10   A    
C60   H140  S    
C67   H155  S    
C63   C64   S    
C2    C49   A    
C159  C203  A    
C138  C147  A    
C84   H193  S    
O59   Zn11  S    
C96   C97   S    
C100  C102  S    
C69   C158  S    
O42   Zn2   S    
C80   H189  S    
O22   Zn5   S    
C125  H92   S    
C136  H114  S    
C172  C219  S    
C78   C161  S    
C161  C170  A    
C132  H105  S    
C144  O23   A    
C48   C210  A    
C106  H50   S    
C133  C200  S    
C41   O47   S    
C14   C16   A    
C171  C180  A    
C154  H113  S    
C125  H91   S    
C51   H139  S    
O45   Zn8   S    
C169  C178  A    
C70   H166  S    
C3    O30   A    
C23   C54   A    
C137  C207  S    
C65   H160  S    
C6    C167  S    
C9    C44   A    
C101  C141  A    
C136  H111  S    
C137  C151  A    
C62   H147  S    
C80   C81   S    
C155  C186  S    
O12   Zn5   S    
C71   H162  S    
C63   O48   S    
C6    O40   A    
C102  H37   S    
C112  O12   A    
O36   Zn3   S    
C87   H200  S    
O60   Zn9   S    
C99   H33   S    
C81   H187  S    
C133  C134  S    
C10   C20   A    
C56   H133  S    
C194  C203  A    
C128  H98   S    
C92   H14   S    
C17   C19   A    
C18   C20   A    
O41   Zn2   S    
C32   C40   A    
C210  H194  S    
C59   H137  S    
C6    O33   A    
C65   C66   S    
C78   H190  S    
C82   H198  S    
C89   H9    S    
C130  C198  S    
O25   Zn7   S    
C21   C52   A    
C127  C128  S    
