data_mof_unit_584.cif
_audit_creation_date              2013-03-05T15:40:08-0500
_audit_creation_method            fapswitch 2.2
_symmetry_space_group_name_H-M    P1
_symmetry_Int_Tables_number       1
_space_group_crystal_system       triclinic
_cell_length_a                    27.992403
_cell_length_b                    18.680746
_cell_length_c                    16.686556
_cell_angle_alpha                 89.996318
_cell_angle_beta                  63.480778
_cell_angle_gamma                 89.996307
_cell_volume                      7807.63704268

loop_
_atom_site_label
_atom_site_type_symbol
_atom_site_description
_atom_site_fract_x
_atom_site_fract_y
_atom_site_fract_z
_atom_type_partial_charge
O1    O     O_R   0.255040 0.869590 0.478480 -0.551154
O2    O     O_R   0.744960 0.130410 0.521520 -0.559335
O3    O     O_R   0.744960 0.869590 0.521520 -0.540112
O4    O     O_R   0.255040 0.130410 0.478480 -0.573629
O5    O     O_R   0.755040 0.369590 0.478480 -0.540255
O6    O     O_R   0.244960 0.630410 0.521520 -0.574605
O7    O     O_R   0.244960 0.369590 0.521520 -0.553810
O8    O     O_R   0.755040 0.630410 0.478480 -0.559448
O9    O     O_R   0.182050 0.796550 0.624440 -0.503778
O10   O     O_R   0.817950 0.203450 0.375560 -0.542053
O11   O     O_R   0.817950 0.796550 0.375560 -0.537219
O12   O     O_R   0.182050 0.203450 0.624440 -0.535580
O13   O     O_R   0.682050 0.296550 0.624440 -0.537358
O14   O     O_R   0.317950 0.703450 0.375560 -0.536524
O15   O     O_R   0.317950 0.296550 0.375560 -0.503797
O16   O     O_R   0.682050 0.703450 0.624440 -0.542098
Cu1   Cu    Cu3+1 0.209920 0.785290 0.495070 1.216747
Cu2   Cu    Cu3+1 0.790080 0.214710 0.504930 1.212051
Cu3   Cu    Cu3+1 0.790080 0.785290 0.504930 1.210084
Cu4   Cu    Cu3+1 0.209920 0.214710 0.495070 1.193085
Cu5   Cu    Cu3+1 0.709920 0.285290 0.495070 1.209244
Cu6   Cu    Cu3+1 0.290080 0.714710 0.504930 1.190521
Cu7   Cu    Cu3+1 0.290080 0.285290 0.504930 1.192019
Cu8   Cu    Cu3+1 0.709920 0.714710 0.495070 1.211520
C1    C     C_R   0.296532 0.732678 0.328052 0.864467
C2    C     C_R   0.705078 0.271226 0.670909 0.921895
C3    C     C_R   0.702682 0.734229 0.672015 0.905211
C4    C     C_R   0.294958 0.271266 0.329229 0.967294
C5    C     C_R   0.797318 0.234230 0.327983 0.905282
C6    C     C_R   0.205044 0.771266 0.670768 0.965289
C7    C     C_R   0.203436 0.232743 0.671961 0.872303
C8    C     C_R   0.794921 0.771228 0.329093 0.921633
O17   O     O_R   0.250530 0.763330 0.367210 -0.525964
O18   O     O_R   0.749470 0.236670 0.632790 -0.495308
O19   O     O_R   0.749470 0.763330 0.632790 -0.492168
O20   O     O_R   0.250530 0.236670 0.367210 -0.504967
O21   O     O_R   0.750530 0.263330 0.367210 -0.492195
O22   O     O_R   0.249470 0.736670 0.632790 -0.505475
O23   O     O_R   0.249470 0.263330 0.632790 -0.533836
O24   O     O_R   0.750530 0.736670 0.367210 -0.495304
O25   O     O_R   0.177260 0.690030 0.513710 -0.565884
O26   O     O_R   0.822740 0.309970 0.486290 -0.578081
O27   O     O_R   0.822740 0.690030 0.486290 -0.569077
O28   O     O_R   0.177260 0.309970 0.513710 -0.570340
O29   O     O_R   0.677260 0.190030 0.513710 -0.569116
O30   O     O_R   0.322740 0.809970 0.486290 -0.571009
O31   O     O_R   0.322740 0.190030 0.486290 -0.566765
O32   O     O_R   0.677260 0.809970 0.513710 -0.578062
C9    C     C_R   0.196424 0.632019 0.529786 0.812932
C10   C     C_R   0.801133 0.368855 0.481388 0.851195
C11   C     C_R   0.798453 0.631234 0.489976 0.819170
C12   C     C_R   0.199863 0.369276 0.516299 0.877306
C13   C     C_R   0.701547 0.131234 0.510024 0.819291
C14   C     C_R   0.300150 0.869281 0.483655 0.873338
C15   C     C_R   0.303587 0.132028 0.470166 0.816276
C16   C     C_R   0.698865 0.868854 0.518615 0.851047
H1    H     H_    0.528187 0.764328 0.552335 0.192822
H2    H     H_    0.506894 0.218431 0.327876 0.224505
H3    H     H_    0.437016 0.769400 0.577883 0.212820
H4    H     H_    0.587923 0.219739 0.338677 0.220472
H5    H     H_    0.062974 0.269366 0.422118 0.213438
H6    H     H_    0.912079 0.719707 0.661326 0.220592
H7    H     H_    0.971795 0.264302 0.447712 0.193253
H8    H     H_    0.993114 0.718387 0.672107 0.224696
C17   C     C_R   0.024587 0.620550 0.595108 -0.011874
C18   C     C_R   0.954200 0.374700 0.489779 -0.011396
C19   C     C_R   0.926163 0.621534 0.582846 -0.011875
C20   C     C_R   0.060649 0.380591 0.464724 -0.014657
C21   C     C_R   0.573837 0.121558 0.417154 -0.011353
C22   C     C_R   0.439347 0.880627 0.535269 -0.014530
C23   C     C_R   0.475422 0.120588 0.404867 -0.011155
C24   C     C_R   0.545788 0.874725 0.510257 -0.011044
C25   C     C_R   0.986809 0.675345 0.634834 -0.120806
C26   C     C_R   0.986847 0.314149 0.460641 -0.132438
C27   C     C_R   0.938912 0.676077 0.628400 -0.142454
C28   C     C_R   0.040070 0.317859 0.444540 -0.119791
C29   C     C_R   0.561091 0.176109 0.371597 -0.143361
C30   C     C_R   0.459920 0.817892 0.555474 -0.120259
C31   C     C_R   0.513197 0.175384 0.365153 -0.123125
C32   C     C_R   0.513138 0.814177 0.539396 -0.132800
C33   C     C_R   0.961195 0.562996 0.550478 0.024598
C34   C     C_R   0.027109 0.440969 0.496684 0.027155
C35   C     C_R   0.010719 0.562787 0.554978 0.025565
C36   C     C_R   0.975683 0.439466 0.501129 0.038185
C37   C     C_R   0.489286 0.062818 0.445000 0.026700
C38   C     C_R   0.524310 0.939493 0.498887 0.038291
C39   C     C_R   0.538805 0.063021 0.449518 0.025077
C40   C     C_R   0.472890 0.941000 0.503309 0.027236
C41   C     C_R   0.455475 0.002631 0.475378 -0.033398
C42   C     C_R   0.555837 0.001481 0.477448 -0.034865
C43   C     C_R   0.944158 0.501459 0.522563 -0.034823
C44   C     C_R   0.044532 0.502602 0.524588 -0.033669
C45   C     C_R   0.372745 0.940689 0.501771 -0.031760
C46   C     C_R   0.634464 0.064234 0.470192 -0.031259
C47   C     C_R   0.625978 0.934859 0.494353 -0.028992
C48   C     C_R   0.388691 0.063589 0.442711 -0.028980
C49   C     C_R   0.874014 0.434849 0.505666 -0.028988
C50   C     C_R   0.111335 0.563560 0.557199 -0.030160
C51   C     C_R   0.127274 0.440663 0.498142 -0.033391
C52   C     C_R   0.865532 0.564223 0.529818 -0.031436
C53   C     C_R   0.327365 0.937245 0.484243 -0.073366
C54   C     C_R   0.676562 0.064859 0.497680 -0.082241
C55   C     C_R   0.672222 0.935118 0.510428 -0.075823
C56   C     C_R   0.334924 0.065046 0.454901 -0.048633
C57   C     C_R   0.827773 0.435116 0.489583 -0.075827
C58   C     C_R   0.165118 0.565029 0.544946 -0.049767
C59   C     C_R   0.172674 0.437234 0.515612 -0.074037
C60   C     C_R   0.823436 0.564856 0.502327 -0.082324
C61   C     C_R   0.307789 0.000476 0.465561 -0.217962
C62   C     C_R   0.694177 0.000344 0.517290 -0.158778
C63   C     C_R   0.805820 0.500346 0.482717 -0.158991
C64   C     C_R   0.192295 0.500476 0.534148 -0.215907
H9    H     H_    0.269666 0.999997 0.463436 0.213277
H10   H     H_    0.726802 0.000642 0.535518 0.212552
H11   H     H_    0.773197 0.500650 0.464485 0.212511
H12   H     H_    0.230457 0.500003 0.536132 0.213245
C65   C     C_R   0.405776 0.002279 0.472955 -0.012121
C66   C     C_R   0.604837 0.000701 0.483001 -0.003769
C67   C     C_R   0.895157 0.500686 0.517014 -0.003865
C68   C     C_R   0.094243 0.502254 0.526968 -0.012480
C69   C     C_R   0.600744 0.871500 0.484691 0.259565
C70   C     C_R   0.425758 0.120180 0.400982 0.294454
C71   C     C_R   0.386515 0.884921 0.545887 0.282373
C72   C     C_R   0.622159 0.121853 0.425837 0.294380
C73   C     C_R   0.113486 0.384880 0.454076 0.282513
C74   C     C_R   0.877838 0.621837 0.574168 0.294494
C75   C     C_R   0.899243 0.371486 0.515343 0.259588
C76   C     C_R   0.074258 0.620136 0.598974 0.294873
H13   H     H_    0.142086 0.685396 0.075881 0.186031
H14   H     H_    0.832955 0.270586 0.942759 0.179857
H15   H     H_    0.855626 0.688780 0.923294 0.183898
H16   H     H_    0.167852 0.260815 0.059241 0.174977
H17   H     H_    0.644373 0.188741 0.076708 0.183930
H18   H     H_    0.331724 0.762574 0.941942 0.172209
H19   H     H_    0.358316 0.187270 0.922739 0.185984
H20   H     H_    0.667028 0.770578 0.057254 0.179824
C77   C     C_R   0.206019 0.737838 0.963448 0.147289
C78   C     C_R   0.769905 0.217340 0.055150 0.167553
C79   C     C_R   0.792407 0.742158 0.035849 0.143043
C80   C     C_R   0.231932 0.210114 0.945703 0.175502
C81   C     C_R   0.707585 0.242131 0.964154 0.142998
C82   C     C_R   0.268031 0.710067 0.054245 0.183172
C83   C     C_R   0.293985 0.237850 0.036469 0.136811
C84   C     C_R   0.730085 0.717344 0.944861 0.167575
C85   C     C_R   0.259906 0.758397 0.926084 -0.101363
C86   C     C_R   0.716578 0.194138 0.092261 -0.087063
C87   C     C_R   0.738902 0.764502 0.072921 -0.108846
C88   C     C_R   0.285814 0.189284 0.907823 -0.092105
C89   C     C_R   0.761085 0.264490 0.927085 -0.108805
C90   C     C_R   0.214460 0.687948 0.091223 -0.163282
C91   C     C_R   0.239879 0.257418 0.074479 -0.102856
C92   C     C_R   0.783417 0.694157 0.907748 -0.087088
H21   H     H_    0.277888 0.786704 0.862768 0.190320
H22   H     H_    0.699065 0.166777 0.156149 0.193223
H23   H     H_    0.721287 0.792691 0.136328 0.187290
H24   H     H_    0.303910 0.163271 0.843028 0.167530
H25   H     H_    0.778696 0.292683 0.863677 0.187312
H26   H     H_    0.196590 0.660880 0.155343 0.156102
H27   H     H_    0.221713 0.284981 0.138300 0.192378
H28   H     H_    0.800934 0.666800 0.843860 0.193207
C93   C     C_R   0.290587 0.744732 0.971050 -0.026624
C94   C     C_R   0.685490 0.206570 0.047085 -0.068970
C95   C     C_R   0.708048 0.752234 0.027874 -0.032136
C96   C     C_R   0.316744 0.203075 0.952999 -0.054170
C97   C     C_R   0.791939 0.252233 0.972136 -0.032087
C98   C     C_R   0.183490 0.701963 0.046172 -0.059037
C99   C     C_R   0.209176 0.243735 0.029564 -0.035805
C100  C     C_R   0.814506 0.706600 0.952919 -0.068939
C101  C     C_R   0.133791 0.810649 0.953353 0.248170
C102  C     C_R   0.842440 0.151340 0.072286 0.223404
C103  C     C_R   0.865799 0.811585 0.046360 0.249059
C104  C     C_R   0.158199 0.148267 0.928410 0.218307
C105  C     C_R   0.634193 0.311563 0.953644 0.249197
C106  C     C_R   0.341727 0.648188 0.071588 0.226037
C107  C     C_R   0.366158 0.310791 0.046657 0.247194
C108  C     C_R   0.657556 0.651340 0.927722 0.223425
C109  C     C_R   0.118918 0.851797 0.896550 -0.250851
C110  C     C_R   0.879970 0.146984 0.107758 -0.242706
C111  C     C_R   0.880936 0.852033 0.103340 -0.244266
C112  C     C_R   0.120726 0.145723 0.892715 -0.243269
C113  C     C_R   0.619063 0.352027 0.896663 -0.244472
C114  C     C_R   0.379200 0.645635 0.107301 -0.245171
C115  C     C_R   0.381042 0.351880 0.103479 -0.251578
C116  C     C_R   0.620029 0.646982 0.892241 -0.242873
C117  C     C_R   0.150267 0.846935 0.803424 0.316346
C118  C     C_R   0.871290 0.188538 0.184351 0.314692
C119  C     C_R   0.849499 0.846999 0.196368 0.253832
C120  C     C_R   0.130044 0.187623 0.816329 0.317132
C121  C     C_R   0.650501 0.346996 0.803633 0.254194
C122  C     C_R   0.369865 0.687512 0.183687 0.319953
C123  C     C_R   0.349704 0.346989 0.196602 0.316626
C124  C     C_R   0.628709 0.688538 0.815645 0.314955
C125  C     C_R   0.181446 0.784697 0.767943 -0.251261
C126  C     C_R   0.822919 0.226312 0.228408 -0.239687
C127  C     C_R   0.818095 0.785004 0.231727 -0.288086
C128  C     C_R   0.179454 0.222870 0.771110 -0.254970
C129  C     C_R   0.681903 0.284997 0.768276 -0.287981
C130  C     C_R   0.320427 0.722672 0.228954 -0.244346
C131  C     C_R   0.318550 0.284732 0.232051 -0.251227
C132  C     C_R   0.677078 0.726312 0.771590 -0.239674
C133  C     C_R   0.191029 0.737848 0.826531 0.292336
C134  C     C_R   0.795742 0.246622 0.177809 0.375103
C135  C     C_R   0.807311 0.739533 0.173126 0.292728
C136  C     C_R   0.208545 0.240142 0.820011 0.319716
C137  C     C_R   0.692682 0.239515 0.826878 0.292511
C138  C     C_R   0.291261 0.739914 0.180162 0.276209
C139  C     C_R   0.308991 0.237893 0.173432 0.289681
C140  C     C_R   0.704250 0.746623 0.822193 0.374925
C141  C     C_R   0.174130 0.758778 0.916021 -0.122103
C142  C     C_R   0.803179 0.205239 0.102454 -0.153733
C143  C     C_R   0.824538 0.760976 0.083616 -0.119994
C144  C     C_R   0.199207 0.199656 0.897076 -0.173782
C145  C     C_R   0.675451 0.260949 0.916390 -0.119930
C146  C     C_R   0.300677 0.699539 0.102976 -0.169578
C147  C     C_R   0.325845 0.258876 0.083950 -0.118579
C148  C     C_R   0.696813 0.705240 0.897554 -0.153691
O33   O     O_R   0.051640 0.926880 0.885090 -0.532883
O34   O     O_R   0.948360 0.073120 0.114910 -0.511894
O35   O     O_R   0.948360 0.926880 0.114910 -0.540233
O36   O     O_R   0.051640 0.073120 0.885090 -0.513517
O37   O     O_R   0.551640 0.426880 0.885090 -0.540437
O38   O     O_R   0.448360 0.573120 0.114910 -0.513155
O39   O     O_R   0.448360 0.426880 0.114910 -0.532732
O40   O     O_R   0.551640 0.573120 0.885090 -0.511911
Cu9   Cu    Cu3+1 0.495240 0.500000 0.924150 1.251034
Cu10  Cu    Cu3+1 0.504760 0.500000 0.075850 1.254689
Cu11  Cu    Cu3+1 0.995240 1.000000 0.924150 1.255784
Cu12  Cu    Cu3+1 0.004760 1.000000 0.075850 1.254222
C149  C     C_R   0.925603 0.903794 0.066772 0.877281
C150  C     C_R   0.074385 0.096406 0.932621 0.916792
C151  C     C_R   0.074303 0.903652 0.933305 0.880236
C152  C     C_R   0.925709 0.096605 0.067467 0.917147
C153  C     C_R   0.425673 0.403695 0.066720 0.880646
C154  C     C_R   0.574291 0.596603 0.932530 0.917822
C155  C     C_R   0.574397 0.403792 0.933230 0.877793
C156  C     C_R   0.425588 0.596375 0.067390 0.916311
O41   O     O_R   0.940620 0.926560 0.986760 -0.537822
O42   O     O_R   0.059380 0.073440 0.013240 -0.542731
O43   O     O_R   0.059380 0.926560 0.013240 -0.538721
O44   O     O_R   0.940620 0.073440 0.986760 -0.544187
O45   O     O_R   0.440620 0.426560 0.986760 -0.539647
O46   O     O_R   0.559380 0.573440 0.013240 -0.544154
O47   O     O_R   0.559380 0.426560 0.013240 -0.537800
O48   O     O_R   0.440620 0.573440 0.986760 -0.543405
N1    N     N_R   0.631575 0.820676 0.415482 0.158424
O49   O     O_R   0.675200 0.841190 0.347151 -0.370457
O50   O     O_R   0.614425 0.755862 0.416025 -0.314667
N2    N     N_R   0.416303 0.170706 0.344396 0.109939
O51   O     O_R   0.402945 0.147956 0.283482 -0.325759
O52   O     O_R   0.417900 0.239295 0.356729 -0.330933
N3    N     N_R   0.344798 0.846079 0.617725 0.117547
O53   O     O_R   0.305717 0.881129 0.680029 -0.345389
O54   O     O_R   0.346674 0.776929 0.624591 -0.330936
N4    N     N_R   0.662670 0.171973 0.373799 0.110758
O55   O     O_R   0.653609 0.240415 0.385643 -0.308776
O56   O     O_R   0.707737 0.148816 0.311358 -0.415362
N5    N     N_R   0.155187 0.345996 0.382263 0.117319
O57   O     O_R   0.194239 0.381013 0.319862 -0.348472
O58   O     O_R   0.153308 0.276837 0.375496 -0.330222
N6    N     N_R   0.837329 0.671960 0.626205 0.110693
O59   O     O_R   0.846392 0.740401 0.614359 -0.308201
O60   O     O_R   0.792263 0.648807 0.688651 -0.415467
N7    N     N_R   0.868406 0.320665 0.584555 0.158425
O61   O     O_R   0.824770 0.341181 0.652863 -0.370315
O62   O     O_R   0.885562 0.255856 0.584044 -0.314117
N8    N     N_R   0.083710 0.670629 0.655588 0.109594
O63   O     O_R   0.097102 0.647842 0.716452 -0.326089
O64   O     O_R   0.082095 0.739225 0.643310 -0.328204
N9    N     N_R   0.110454 0.823816 0.047792 0.140152
O65   O     O_R   0.064645 0.795363 0.100365 -0.343783
O66   O     O_R   0.135779 0.862232 0.081585 -0.264482
N10   N     N_R   0.843474 0.100747 0.006769 0.149684
O67   O     O_R   0.832260 0.033835 0.028758 -0.297897
O68   O     O_R   0.858610 0.120372 0.924176 -0.311613
N11   N     N_R   0.889585 0.824581 0.951831 0.141087
O69   O     O_R   0.935012 0.794985 0.899641 -0.338303
O70   O     O_R   0.865157 0.864315 0.917627 -0.285205
N12   N     N_R   0.155822 0.097592 0.994765 0.149819
O71   O     O_R   0.168386 0.031000 0.972510 -0.291620
O72   O     O_R   0.137502 0.116571 0.078266 -0.308512
N13   N     N_R   0.610404 0.324551 0.048174 0.141005
O73   O     O_R   0.564978 0.294955 0.100361 -0.338548
O74   O     O_R   0.634827 0.364284 0.082380 -0.285588
N14   N     N_R   0.344218 0.597660 0.005017 0.150367
O75   O     O_R   0.332026 0.530928 0.026886 -0.292551
O76   O     O_R   0.362010 0.617036 0.921739 -0.311022
N15   N     N_R   0.389421 0.324132 0.952260 0.142438
O77   O     O_R   0.435227 0.295750 0.899518 -0.341518
O78   O     O_R   0.364169 0.362980 0.918726 -0.258796
N16   N     N_R   0.656522 0.600745 0.993243 0.149668
O79   O     O_R   0.667736 0.533832 0.971261 -0.297928
O80   O     O_R   0.641389 0.620369 0.075833 -0.311972
S1    S     S_3+6 0.158352 0.924625 0.735578 0.063362
O81   O     O_2   0.119305 0.922453 0.696474 -0.203348
O82   O     O_2   0.149085 0.991286 0.790968 -0.326857
O83   O     O_3   0.220472 0.928900 0.652413 -0.535589
H29   H     H_    0.228760 0.980679 0.643005 0.366623
S2    S     S_3+6 0.923074 0.205189 0.216631 0.063740
O84   O     O_2   0.924870 0.145073 0.275154 -0.232226
O85   O     O_2   0.976088 0.210650 0.135076 -0.264144
O86   O     O_3   0.911512 0.282766 0.273616 -0.533070
H30   H     H_    0.936809 0.282943 0.300308 0.367350
S3    S     S_3+6 0.839103 0.925165 0.264027 0.063218
O87   O     O_2   0.875620 0.923899 0.308117 -0.197877
O88   O     O_2   0.849507 0.992067 0.208808 -0.302280
O89   O     O_3   0.775618 0.928196 0.342906 -0.535802
H31   H     H_    0.754618 0.940842 0.310367 0.370094
S4    S     S_3+6 0.078023 0.207227 0.785578 0.070019
O90   O     O_2   0.074935 0.148577 0.726356 -0.233320
O91   O     O_2   0.025385 0.213047 0.867852 -0.264192
O92   O     O_3   0.090398 0.285596 0.730097 -0.520182
H32   H     H_    0.064069 0.288168 0.705612 0.377133
S5    S     S_3+6 0.660900 0.425166 0.735970 0.062974
O93   O     O_2   0.624387 0.423909 0.691871 -0.198815
O94   O     O_2   0.650489 0.492064 0.791190 -0.302319
O95   O     O_3   0.724387 0.428192 0.657098 -0.535794
H33   H     H_    0.745372 0.441051 0.689597 0.370195
S6    S     S_3+6 0.421911 0.707257 0.214332 0.069398
O96   O     O_2   0.425077 0.648674 0.273575 -0.234400
O97   O     O_2   0.474523 0.713104 0.132010 -0.264228
O98   O     O_3   0.409502 0.785658 0.269742 -0.520665
H34   H     H_    0.435847 0.788303 0.294185 0.377099
S7    S     S_3+6 0.341589 0.424659 0.264490 0.062555
O99   O     O_2   0.380613 0.422481 0.303639 -0.203781
O100  O     O_2   0.350899 0.491345 0.209113 -0.328621
O101  O     O_3   0.279446 0.428845 0.347668 -0.536487
H35   H     H_    0.269921 0.480327 0.353933 0.367072
S8    S     S_3+6 0.576926 0.705194 0.783361 0.063461
O102  O     O_2   0.575133 0.645081 0.724841 -0.233145
O103  O     O_2   0.523911 0.710655 0.864913 -0.264098
O104  O     O_3   0.588487 0.782772 0.726369 -0.532955
H36   H     H_    0.563190 0.782952 0.699676 0.367315
S9    S     S_3+6 0.221217 0.651856 0.793056 0.086509
O105  O     O_2   0.202967 0.616862 0.730398 -0.219773
O106  O     O_2   0.280929 0.659983 0.746278 -0.239419
O107  O     O_3   0.204058 0.598227 0.882864 -0.476447
H37   H     H_    0.237447 0.589599 0.888181 0.387880
S10   S     S_3+6 0.762382 0.330709 0.195439 0.088255
O108  O     O_2   0.771629 0.376021 0.261654 -0.237797
O109  O     O_2   0.783767 0.370204 0.107792 -0.255472
O110  O     O_3   0.696613 0.317686 0.231501 -0.471013
H38   H     H_    0.681962 0.365645 0.229948 0.401191
S11   S     S_3+6 0.774640 0.655049 0.206950 0.077310
O111  O     O_2   0.793118 0.617279 0.267666 -0.242807
O112  O     O_2   0.715294 0.666614 0.256192 -0.223986
O113  O     O_3   0.788673 0.602263 0.117353 -0.477130
H39   H     H_    0.754509 0.596254 0.113791 0.389141
S12   S     S_3+6 0.251588 0.316494 0.791483 0.069093
O114  O     O_2   0.233670 0.371764 0.745131 -0.225612
O115  O     O_2   0.251026 0.350146 0.873718 -0.232240
O116  O     O_3   0.314220 0.290439 0.722956 -0.522289
H40   H     H_    0.335914 0.334672 0.709993 0.392825
S13   S     S_3+6 0.725359 0.155032 0.793053 0.077488
O117  O     O_2   0.706884 0.117270 0.732334 -0.242718
O118  O     O_2   0.784704 0.166597 0.743815 -0.223686
O119  O     O_3   0.711327 0.102238 0.882649 -0.477079
H41   H     H_    0.745490 0.096234 0.886221 0.389174
S14   S     S_3+6 0.248505 0.816617 0.208684 0.084525
O120  O     O_2   0.267485 0.872183 0.253099 -0.189839
O121  O     O_2   0.248405 0.850110 0.126813 -0.241567
O122  O     O_3   0.185849 0.792253 0.279845 -0.496178
H42   H     H_    0.167249 0.784765 0.242091 0.369270
S15   S     S_3+6 0.278944 0.151823 0.206844 0.088927
O123  O     O_2   0.297331 0.116862 0.269351 -0.218275
O124  O     O_2   0.219220 0.159767 0.253784 -0.236325
O125  O     O_3   0.296116 0.098281 0.116960 -0.476170
H43   H     H_    0.262761 0.089864 0.111460 0.387751
S16   S     S_3+6 0.737605 0.830710 0.804555 0.088400
O126  O     O_2   0.728351 0.876024 0.738341 -0.237657
O127  O     O_2   0.716222 0.870202 0.892199 -0.255460
O128  O     O_3   0.803376 0.817688 0.768483 -0.470783
H44   H     H_    0.818024 0.865647 0.770034 0.401458

loop_
_geom_bond_atom_site_label_1
_geom_bond_atom_site_label_2
_geom_bond_distance
_ccdc_geom_bond_type
C130  C138  1.423613 A    
Cu2   Cu5   2.670152 S    
C59   C64   1.394589 A    
C23   C70   1.420367 A    
C103  C111  1.419282 A    
C121  S5    1.788365 S    
O39   Cu10  1.965802 S    
C122  S6    1.784766 S    
O86   H30   0.990699 S    
O38   C156  1.294263 A    
C102  C110  1.419843 A    
C78   C97   1.400395 A    
C83   C147  1.486078 S    
N14   O75   1.300953 A    
C118  S2    1.784785 S    
C119  S3    1.788360 S    
C124  S8    1.784782 S    
C38   C40   1.408258 A    
C127  C135  1.425673 A    
Cu6   O22   1.961319 S    
O37   Cu9   1.965721 S    
C125  C133  1.423977 A    
C6    O22   1.289174 A    
S14   O122  1.683306 S    
N7    O62   1.301051 A    
C101  C109  1.419464 A    
C2    C129  1.478354 S    
N4    O56   1.300155 A    
O39   C153  1.301386 A    
C33   C35   1.421437 A    
C47   C55   1.434463 A    
N10   O67   1.301038 A    
N15   O78   1.300984 A    
O3    Cu3   1.959431 S    
O101  H35   0.990956 S    
C36   C43   1.402089 A    
C128  C136  1.423574 A    
C87   H23   1.083548 S    
S4    O92   1.683399 S    
C114  C156  1.484628 S    
C49   C57   1.434473 A    
C138  C146  1.412137 A    
C83   C91   1.404258 A    
C132  C140  1.417424 A    
N1    O49   1.301823 A    
H17   C94   1.082569 S    
C25   C27   1.392063 A    
O25   C9    1.289380 A    
C77   C98   1.405284 A    
S13   O118  1.504186 D    
N2    O52   1.301662 A    
C29   C31   1.392046 A    
S7    O99   1.502976 D    
N3    O53   1.300266 A    
S3    O88   1.502014 D    
C38   C42   1.402111 A    
C45   C53   1.426590 A    
C3    O19   1.293749 A    
S9    O105  1.502866 D    
O36   Cu11  1.965803 S    
O95   H33   0.990617 S    
Cu8   O32   1.960918 S    
C105  C145  1.404674 A    
C110  C152  1.486006 S    
Cu11  Cu12  2.661043 S    
C86   H22   1.082284 S    
C13   C54   1.482515 S    
O12   Cu4   1.951684 S    
O89   H31   0.990516 S    
O13   Cu5   1.951703 S    
C107  N15   1.432242 S    
C134  S10   1.783411 S    
C155  O47   1.280220 A    
H2    C31   1.078260 S    
S8    O103  1.503714 D    
O83   H29   0.990733 S    
N3    O54   1.299962 A    
C34   C36   1.408259 A    
C48   C56   1.426172 A    
H6    C27   1.077860 S    
S2    O84   1.503673 D    
C149  O41   1.280197 A    
C107  C115  1.419403 A    
S9    O107  1.684414 S    
C121  C129  1.413850 A    
C108  C116  1.419872 A    
S6    O98   1.683403 S    
C45   C71   1.424440 A    
C16   C55   1.482578 S    
O107  H37   0.990682 S    
O2    C13   1.312236 A    
C50   C68   1.417973 A    
C9    C58   1.483298 S    
H7    C26   1.082776 S    
C48   C70   1.426155 A    
C50   C58   1.426269 A    
C60   C63   1.395244 A    
Cu3   O19   1.961292 S    
H14   C97   1.083292 S    
C85   C93   1.393270 A    
O10   Cu2   1.951703 S    
C91   C99   1.393180 A    
Cu11  O44   1.970985 S    
S12   O114  1.504033 D    
C124  C132  1.408108 A    
C103  N11   1.432634 S    
C110  C118  1.420519 A    
O5    Cu5   1.959536 S    
C40   C41   1.408235 A    
C46   C54   1.442868 A    
O98   H34   0.990600 S    
C114  C122  1.416911 A    
Cu9   O45   1.971030 S    
S16   O128  1.679713 S    
C91   H27   1.083641 S    
O6    Cu6   1.959534 S    
C14   C53   1.482958 S    
C21   C29   1.409163 A    
O116  H40   0.990488 S    
C106  C114  1.419829 A    
C82   C93   1.400861 A    
C23   C31   1.406925 A    
Cu10  O47   1.970988 S    
C109  C117  1.405477 A    
Cu9   O48   1.970985 S    
C26   C28   1.392523 A    
H13   C98   1.082474 S    
C55   C62   1.392270 A    
C52   C74   1.432656 A    
O7    C12   1.303626 A    
Cu2   O26   1.960989 S    
C30   C32   1.392526 A    
S5    O94   1.502021 D    
C6    C125  1.473824 S    
C105  N13   1.432634 S    
C90   C98   1.402554 A    
N5    O57   1.300263 A    
C133  S9    1.784653 S    
S6    O97   1.503756 D    
C10   C57   1.482613 S    
H8    C25   1.078252 S    
O35   Cu12  1.965802 S    
C111  C149  1.479673 S    
C62   H10   1.083799 S    
O28   C12   1.286121 A    
C80   C99   1.400876 A    
O29   C13   1.278654 A    
C81   C94   1.405159 A    
H1    C32   1.082776 S    
C135  C143  1.407358 A    
C45   C65   1.418779 A    
H3    C30   1.075839 S    
C133  C141  1.405630 A    
Cu4   O28   1.960918 S    
S4    O91   1.503753 D    
Cu5   O29   1.960989 S    
H5    C28   1.075832 S    
C52   C60   1.442853 A    
C4    C131  1.473956 S    
Cu7   O31   1.960919 S    
C88   C96   1.402552 A    
C48   C65   1.417932 A    
C89   C97   1.393991 A    
C84   C148  1.482658 S    
C15   C56   1.483369 S    
C78   C142  1.482615 S    
S12   O116  1.681653 S    
S7    O100  1.502831 D    
O4    Cu4   1.959434 S    
C49   C67   1.413850 A    
S1    O81   1.503005 D    
C102  C142  1.407444 A    
Cu4   Cu7   2.670305 S    
O34   C152  1.292044 A    
O16   C3    1.305345 A    
C52   C67   1.408487 A    
S14   O121  1.503699 D    
C116  C154  1.486026 S    
N8    O64   1.301660 A    
O9    C6    1.295867 A    
C154  O46   1.293518 A    
O26   C10   1.275389 A    
O11   C8    1.298825 A    
C19   C33   1.405750 A    
S10   O109  1.503248 D    
S11   O112  1.504190 D    
O12   C7    1.307898 A    
S15   O125  1.684446 S    
C43   C67   1.415488 A    
O13   C2    1.298779 A    
C19   C27   1.409171 A    
C64   H12   1.083476 S    
O9    Cu1   1.951703 S    
C118  C126  1.408113 A    
C41   C65   1.409723 A    
N6    O59   1.301272 A    
C20   C28   1.411388 A    
S10   O110  1.679717 S    
C106  N14   1.435522 S    
O1    Cu1   1.959536 S    
H18   C93   1.083318 S    
C20   C34   1.410975 A    
O14   Cu6   1.951703 S    
N14   O76   1.300779 A    
C44   C68   1.409727 A    
C139  S15   1.784600 S    
C24   C32   1.397940 A    
C87   C95   1.394009 A    
C46   C66   1.408514 A    
C47   C69   1.423971 A    
C78   C86   1.405073 A    
O7    Cu7   1.959431 S    
C135  S11   1.784624 S    
O8    Cu8   1.959434 S    
C105  C113  1.419258 A    
O15   C4    1.295931 A    
C117  S1    1.791707 S    
N10   O68   1.300714 A    
C76   N8    1.440666 S    
N12   O71   1.300951 A    
C20   C73   1.410989 A    
C1    O17   1.289028 A    
C24   C69   1.402195 A    
C129  C137  1.425674 A    
N11   O69   1.300815 A    
H16   C99   1.083312 S    
S11   O111  1.503226 D    
O40   Cu9   1.965803 S    
S16   O127  1.503248 D    
S13   O117  1.503229 D    
N7    O61   1.301831 A    
C86   C94   1.401874 A    
O11   Cu3   1.951684 S    
S2    O85   1.503714 D    
C42   C66   1.415492 A    
C77   C85   1.404193 A    
S1    O83   1.673634 S    
S8    O104  1.683566 S    
C111  C119  1.404664 A    
C53   C61   1.394692 A    
O128  H44   0.990433 S    
C126  C134  1.417424 A    
C34   C44   1.408258 A    
N16   O79   1.301038 A    
O34   Cu12  1.965718 S    
O40   C154  1.292071 A    
O125  H43   0.990681 S    
S16   O126  1.503280 D    
C1    C130  1.493008 S    
C112  C120  1.417162 A    
C113  C121  1.404684 A    
C12   C59   1.482797 S    
S15   O123  1.502858 D    
C116  C124  1.420504 A    
C21   C39   1.405763 A    
C104  C112  1.419605 A    
C50   C76   1.426169 A    
C57   C63   1.392247 A    
C70   N2    1.440653 S    
C137  C145  1.407355 A    
N9    O65   1.300738 A    
O37   C155  1.301513 A    
Cu1   O17   1.961318 S    
O35   C149  1.301546 A    
C8    C127  1.478344 S    
C92   C100  1.401890 A    
Cu3   O27   1.960919 S    
S3    O89   1.674791 S    
S9    O106  1.503701 D    
C17   C76   1.420403 A    
C82   C146  1.482750 S    
C72   N4    1.427322 S    
C19   C74   1.423296 A    
C37   C41   1.410125 A    
C156  O48   1.290469 A    
S8    O102  1.503675 D    
C21   C72   1.423287 A    
C77   C141  1.485571 S    
C106  C146  1.406212 A    
S2    O86   1.683565 S    
C107  C147  1.405050 A    
O104  H36   0.990700 S    
N4    O55   1.301275 A    
N15   O77   1.300765 A    
C112  C150  1.484452 S    
O30   C14   1.286135 A    
C139  C147  1.405920 A    
C115  C153  1.479774 S    
Cu6   O30   1.960989 S    
N1    O50   1.301053 A    
C84   C95   1.400402 A    
C123  S7    1.791772 S    
O5    C10   1.312721 A    
C54   C62   1.395223 A    
N13   O74   1.301044 A    
C83   C96   1.405526 A    
S13   O119  1.684505 S    
N2    O51   1.301183 A    
C80   C144  1.483061 S    
C90   H26   1.082911 S    
C24   C38   1.401109 A    
S1    O82   1.502755 D    
C51   C59   1.426524 A    
Cu1   Cu6   2.670152 S    
O36   C150  1.294083 A    
C82   C90   1.404981 A    
Cu3   Cu8   2.670305 S    
O10   C5    1.305301 A    
O27   C11   1.278711 A    
S5    O93   1.502766 D    
C7    C128  1.493349 S    
C75   N7    1.445669 S    
O14   C1    1.307796 A    
C79   C100  1.405163 A    
Cu10  O46   1.971030 S    
Cu4   O20   1.961291 S    
Cu5   O21   1.961318 S    
C4    O20   1.289265 A    
C84   C92   1.405076 A    
C39   C42   1.401569 A    
C5    O21   1.293706 A    
C88   H24   1.082910 S    
C89   H25   1.083547 S    
C104  N12   1.435495 S    
H20   C95   1.083288 S    
C18   C26   1.397923 A    
O92   H32   0.990600 S    
C92   H28   1.082285 S    
C101  N9    1.432247 S    
C22   C30   1.411375 A    
H19   C96   1.082422 S    
C49   C75   1.423945 A    
C22   C40   1.410988 A    
C80   C88   1.405160 A    
C81   C89   1.404521 A    
C51   C73   1.424480 A    
C58   C64   1.393889 A    
O110  H38   0.990433 S    
Cu12  O42   1.971030 S    
C35   C44   1.410105 A    
C79   C87   1.404526 A    
N11   O70   1.301033 A    
C123  C131  1.415064 A    
C56   C61   1.393909 A    
C17   C35   1.412702 A    
O38   Cu10  1.965718 S    
C5    C126  1.494296 S    
Cu11  O41   1.971030 S    
C73   N5    1.441217 S    
C17   C25   1.406931 A    
C18   C75   1.402204 A    
C151  O43   1.280333 A    
C51   C68   1.418744 A    
C23   C37   1.412691 A    
C22   C71   1.411007 A    
C2    O18   1.288253 A    
S3    O87   1.502765 D    
C11   C60   1.482471 S    
C108  C148  1.407465 A    
C122  C130  1.408408 A    
C61   H9    1.083481 S    
C138  S14   1.789768 S    
C85   H21   1.083648 S    
O15   Cu7   1.951684 S    
O16   Cu8   1.951684 S    
S15   O124  1.503707 D    
C136  C144  1.411991 A    
C134  C142  1.410111 A    
S12   O115  1.503085 D    
C137  S13   1.784621 S    
C108  N16   1.435664 S    
C37   C39   1.421434 A    
C47   C66   1.413838 A    
H4    C29   1.077859 S    
Cu12  O43   1.970988 S    
N6    O60   1.300155 A    
C81   C145  1.485930 S    
S5    O95   1.674812 S    
C79   C143  1.485980 S    
N13   O73   1.300807 A    
N5    O58   1.299971 A    
O1    C14   1.303601 A    
C71   N3    1.441208 S    
S6    O96   1.503622 D    
C103  C143  1.404685 A    
O3    C16   1.312743 A    
C113  C155  1.479652 S    
C101  C141  1.404926 A    
C131  C139  1.424007 A    
Cu9   Cu10  2.661043 S    
C33   C43   1.401575 A    
Cu2   O18   1.961319 S    
O8    C11   1.312244 A    
C153  O45   1.280298 A    
O33   Cu11  1.965721 S    
H15   C100  1.082571 S    
C102  N10   1.435666 S    
N12   O72   1.300775 A    
C150  O42   1.290574 A    
C120  S4    1.784674 S    
S4    O90   1.503621 D    
O31   C15   1.289482 A    
O32   C16   1.275445 A    
C119  C127  1.413854 A    
C3    C132  1.494289 S    
C117  C125  1.415113 A    
O2    Cu2   1.959534 S    
C104  C144  1.405981 A    
C115  C123  1.405417 A    
C109  C151  1.479921 S    
C69   N1    1.445665 S    
O122  H42   0.990191 S    
C74   N6    1.427321 S    
S7    O101  1.674067 S    
C140  S16   1.783413 S    
N9    O66   1.300986 A    
O4    C15   1.303294 A    
O33   C151  1.301429 A    
O113  H39   0.990700 S    
C136  S12   1.789019 S    
Cu7   O23   1.961292 S    
O119  H41   0.990698 S    
Cu8   O24   1.961291 S    
C7    O23   1.289235 A    
N16   O80   1.300714 A    
C8    O24   1.288289 A    
O6    C9    1.303255 A    
S14   O120  1.503608 D    
Cu1   O25   1.960989 S    
N8    O63   1.301189 A    
C18   C36   1.401122 A    
C120  C128  1.408544 A    
C140  C148  1.410116 A    
S10   O108  1.503278 D    
S11   O113  1.684503 S    
C152  O44   1.293537 A    
C63   H11   1.083799 S    
C46   C72   1.432644 A    
