data_mof_unit_949.cif
_audit_creation_date              2012-12-10T16:46:19-0500
_audit_creation_method            fapswitch 2.2
_symmetry_space_group_name_H-M    P1
_symmetry_Int_Tables_number       1
_space_group_crystal_system       triclinic
_cell_length_a                    26.756293
_cell_length_b                    26.756097
_cell_length_c                    26.746254
_cell_angle_alpha                 89.986959
_cell_angle_beta                  90.006358
_cell_angle_gamma                 90.028932
_cell_volume                      19147.4789272

loop_
_atom_site_label
_atom_site_type_symbol
_atom_type_description
_atom_site_fract_x
_atom_site_fract_y
_atom_site_fract_z
_atom_type_partial_charge
C1    C     C_R   0.929364 0.701697 0.297998 0.810224
C2    C     C_R   0.070723 0.701777 0.297924 0.807255
C3    C     C_R   0.828163 0.107062 0.828218 -0.175888
C4    C     C_R   0.176507 0.886467 0.822068 -0.168084
C5    C     C_R   0.822250 0.113369 0.176386 -0.176591
C6    C     C_R   0.828143 0.892891 0.828156 -0.178213
C7    C     C_R   0.171844 0.107108 0.171847 -0.187332
C8    C     C_R   0.107079 0.171823 0.171826 -0.186864
C9    C     C_R   0.892933 0.828199 0.828195 -0.182287
C10   C     C_R   0.107043 0.171787 0.828210 -0.182893
C11   C     C_R   0.892836 0.828108 0.171901 -0.175030
C12   C     C_R   0.106275 0.828732 0.828734 -0.168829
C13   C     C_R   0.300838 0.300837 0.933011 0.801682
C14   C     C_R   0.886621 0.177764 0.176393 -0.176818
C15   C     C_R   0.106328 0.828692 0.171286 -0.171218
C16   C     C_R   0.892872 0.171860 0.828167 -0.177709
C17   C     C_R   0.828093 0.171881 0.892876 -0.178419
C18   C     C_R   0.176558 0.822057 0.113557 -0.170682
C19   C     C_R   0.828180 0.828183 0.892939 -0.182175
C20   C     C_R   0.171786 0.171801 0.107039 -0.183360
C21   C     C_R   0.176545 0.822080 0.886439 -0.178799
C22   C     C_R   0.828827 0.171176 0.106172 -0.180985
C23   C     C_R   0.171796 0.171800 0.892953 -0.183246
C24   C     C_R   0.702035 0.701737 0.070677 0.803381
C25   C     C_R   0.828189 0.828202 0.107057 -0.174434
C26   C     C_R   0.328164 0.392904 0.171839 -0.187177
C27   C     C_R   0.671798 0.607056 0.828207 -0.182617
C28   C     C_R   0.171903 0.392853 0.671867 -0.180340
C29   C     C_R   0.828747 0.606247 0.328797 -0.183107
C30   C     C_R   0.671845 0.392910 0.828186 -0.176217
C31   C     C_R   0.323458 0.613528 0.177891 -0.172019
C32   C     C_R   0.823570 0.386570 0.322209 -0.176173
C33   C     C_R   0.177794 0.613455 0.676484 -0.176334
C34   C     C_R   0.328116 0.607170 0.828102 -0.177712
C35   C     C_R   0.067831 0.300293 0.300297 0.799058
C36   C     C_R   0.671835 0.392912 0.171831 -0.175724
C37   C     C_R   0.171312 0.606343 0.328683 -0.172012
C38   C     C_R   0.822212 0.386605 0.676403 -0.177533
C39   C     C_R   0.671208 0.606259 0.171249 -0.179700
C40   C     C_R   0.322251 0.386623 0.823594 -0.176812
C41   C     C_R   0.828187 0.607061 0.671799 -0.186533
C42   C     C_R   0.171763 0.392994 0.328247 -0.182659
C43   C     C_R   0.613374 0.177767 0.676374 -0.177591
C44   C     C_R   0.386467 0.823482 0.322099 -0.179833
C45   C     C_R   0.607138 0.671874 0.828123 -0.178129
C46   C     C_R   0.932132 0.699741 0.699735 0.806526
C47   C     C_R   0.392947 0.328206 0.171802 -0.184012
C48   C     C_R   0.613484 0.823519 0.322134 -0.173029
C49   C     C_R   0.392888 0.171869 0.671846 -0.181520
C50   C     C_R   0.607081 0.328172 0.171825 -0.181953
C51   C     C_R   0.392910 0.671863 0.828172 -0.177354
C52   C     C_R   0.393649 0.828720 0.671332 -0.182053
C53   C     C_R   0.607118 0.171849 0.328145 -0.182282
C54   C     C_R   0.386625 0.322248 0.823597 -0.176701
C55   C     C_R   0.613493 0.676490 0.177899 -0.165353
C56   C     C_R   0.392922 0.171841 0.328189 -0.167582
C57   C     C_R   0.699706 0.300294 0.067827 0.801723
C58   C     C_R   0.613410 0.822193 0.676406 -0.176411
C59   C     C_R   0.393679 0.671300 0.171282 -0.176304
C60   C     C_R   0.607087 0.328164 0.828187 -0.179871
C61   C     C_R   0.822133 0.676480 0.386533 -0.167802
C62   C     C_R   0.171841 0.328171 0.607066 -0.182016
C63   C     C_R   0.322092 0.823498 0.386487 -0.172107
C64   C     C_R   0.671142 0.171158 0.606145 -0.177899
C65   C     C_R   0.171778 0.328231 0.392990 -0.184627
C66   C     C_R   0.828225 0.671783 0.607015 -0.186671
C67   C     C_R   0.671901 0.171897 0.392850 -0.175187
C68   C     C_R   0.300240 0.699767 0.932105 0.796033
C69   C     C_R   0.323467 0.822160 0.613502 -0.180815
C70   C     C_R   0.171225 0.671265 0.606269 -0.176370
C71   C     C_R   0.823563 0.322164 0.386573 -0.172438
C72   C     C_R   0.671195 0.828803 0.606186 -0.182187
C73   C     C_R   0.328156 0.171866 0.392906 -0.168282
C74   C     C_R   0.828822 0.328835 0.606178 -0.181981
C75   C     C_R   0.177920 0.676545 0.386458 -0.164921
C76   C     C_R   0.328164 0.171850 0.607078 -0.182718
C77   C     C_R   0.677851 0.823527 0.386532 -0.168085
C78   C     C_R   0.323423 0.886444 0.677951 -0.167271
C79   C     C_R   0.300280 0.067842 0.699712 0.804315
C80   C     C_R   0.671858 0.107116 0.328149 -0.175327
C81   C     C_R   0.677793 0.886580 0.676415 -0.179972
C82   C     C_R   0.328218 0.107040 0.328235 -0.186420
C83   C     C_R   0.671257 0.893735 0.328748 -0.177829
C84   C     C_R   0.328190 0.107062 0.671791 -0.185757
C85   C     C_R   0.328693 0.893679 0.328681 -0.168102
C86   C     C_R   0.677767 0.113403 0.676397 -0.180082
C87   C     C_R   0.113522 0.677912 0.676526 -0.174122
C88   C     C_R   0.893751 0.328749 0.328770 -0.173801
C89   C     C_R   0.113555 0.676554 0.322075 -0.177950
C90   C     C_R   0.699184 0.932984 0.300820 0.807260
C91   C     C_R   0.886589 0.322233 0.676420 -0.177430
C92   C     C_R   0.107014 0.328233 0.328245 -0.184177
C93   C     C_R   0.892900 0.671848 0.671839 -0.186287
C94   C     C_R   0.107071 0.328184 0.671790 -0.185453
C95   C     C_R   0.886584 0.676429 0.322228 -0.179694
C96   C     C_R   0.328077 0.671951 0.892810 -0.176379
C97   C     C_R   0.671771 0.328231 0.107016 -0.181958
C98   C     C_R   0.328822 0.328814 0.893804 -0.181715
C99   C     C_R   0.677794 0.676478 0.113452 -0.176050
C100  C     C_R   0.671878 0.328122 0.892890 -0.180455
C101  C     C_R   0.300799 0.932964 0.300801 0.794372
C102  C     C_R   0.323443 0.677932 0.113548 -0.168086
C103  C     C_R   0.671858 0.671859 0.892894 -0.185631
C104  C     C_R   0.328209 0.328206 0.107042 -0.182788
C105  C     C_R   0.808331 0.872837 0.127155 -0.049951
C106  C     C_R   0.191684 0.127187 0.872833 -0.053481
C107  C     C_R   0.127082 0.872797 0.191149 -0.055135
C108  C     C_R   0.872888 0.127095 0.808441 -0.054830
C109  C     C_R   0.202955 0.856652 0.856606 -0.055302
C110  C     C_R   0.809003 0.127024 0.126895 -0.046737
C111  C     C_R   0.872839 0.872856 0.808335 -0.048438
C112  C     C_R   0.067845 0.300276 0.699713 0.808971
C113  C     C_R   0.702007 0.070640 0.701691 0.809589
C114  C     C_R   0.127205 0.127200 0.191733 -0.052673
C115  C     C_R   0.808219 0.127208 0.872812 -0.033702
C116  C     C_R   0.202983 0.856646 0.143347 -0.052642
C117  C     C_R   0.127142 0.127149 0.808332 -0.046791
C118  C     C_R   0.872627 0.872624 0.191917 -0.042999
C119  C     C_R   0.191649 0.127166 0.127143 -0.054152
C120  C     C_R   0.808273 0.872787 0.872805 -0.039516
C121  C     C_R   0.856859 0.143139 0.202804 -0.062865
C122  C     C_R   0.127022 0.872817 0.808820 -0.045360
C123  C     C_R   0.127077 0.191570 0.872933 -0.053955
C124  C     C_R   0.702006 0.929360 0.701698 0.810110
C125  C     C_R   0.872886 0.808415 0.127100 -0.052878
C126  C     C_R   0.127084 0.808802 0.127194 -0.054180
C127  C     C_R   0.872710 0.191802 0.872745 -0.043521
C128  C     C_R   0.872895 0.808403 0.872916 -0.052705
C129  C     C_R   0.127094 0.191602 0.127083 -0.052187
C130  C     C_R   0.872960 0.191028 0.126907 -0.054322
C131  C     C_R   0.127059 0.808832 0.872821 -0.053073
C132  C     C_R   0.308331 0.372830 0.127151 -0.051984
C133  C     C_R   0.691611 0.627117 0.872905 -0.052763
C134  C     C_R   0.127215 0.372792 0.691691 -0.055254
C135  C     C_R   0.300291 0.067836 0.300295 0.794714
C136  C     C_R   0.872935 0.626939 0.309023 -0.051577
C137  C     C_R   0.691763 0.372774 0.872797 -0.044360
C138  C     C_R   0.297025 0.643327 0.143323 -0.052649
C139  C     C_R   0.873029 0.372894 0.308932 -0.053493
C140  C     C_R   0.143238 0.643260 0.702930 -0.054407
C141  C     C_R   0.308180 0.627323 0.872688 -0.051216
C142  C     C_R   0.691596 0.372920 0.127078 -0.052790
C143  C     C_R   0.127219 0.627097 0.308788 -0.053810
C144  C     C_R   0.856816 0.356831 0.702830 -0.067139
C145  C     C_R   0.690969 0.626971 0.127063 -0.054316
C146  C     C_R   0.699744 0.067880 0.300260 0.798373
C147  C     C_R   0.308993 0.372942 0.873070 -0.053197
C148  C     C_R   0.872785 0.627212 0.691729 -0.053750
C149  C     C_R   0.127060 0.372942 0.308431 -0.050417
C150  C     C_R   0.643157 0.143169 0.702800 -0.066286
C151  C     C_R   0.372774 0.872918 0.308771 -0.053697
C152  C     C_R   0.627295 0.691808 0.872714 -0.039407
C153  C     C_R   0.372919 0.308428 0.127072 -0.051976
C154  C     C_R   0.627158 0.872976 0.308850 -0.055768
C155  C     C_R   0.372850 0.127151 0.691648 -0.052966
C156  C     C_R   0.627081 0.308406 0.127079 -0.053022
C157  C     C_R   0.298213 0.929270 0.702088 0.794027
C158  C     C_R   0.372761 0.691808 0.872766 -0.044835
C159  C     C_R   0.372848 0.872748 0.691298 -0.054884
C160  C     C_R   0.627140 0.127136 0.308353 -0.053319
C161  C     C_R   0.372946 0.308976 0.873074 -0.053508
C162  C     C_R   0.643246 0.702902 0.143276 -0.056111
C163  C     C_R   0.372926 0.127085 0.308439 -0.039725
C164  C     C_R   0.643199 0.856785 0.702830 -0.068337
C165  C     C_R   0.372906 0.691206 0.127196 -0.049605
C166  C     C_R   0.627210 0.308256 0.872812 -0.043501
C167  C     C_R   0.856788 0.702859 0.356786 -0.063910
C168  C     C_R   0.432141 0.199733 0.300270 0.783722
C169  C     C_R   0.127082 0.308413 0.627057 -0.049823
C170  C     C_R   0.308785 0.872933 0.372769 -0.047171
C171  C     C_R   0.690984 0.127043 0.626898 -0.052018
C172  C     C_R   0.127091 0.308395 0.372930 -0.045951
C173  C     C_R   0.872864 0.691667 0.627130 -0.052848
C174  C     C_R   0.691751 0.127240 0.372779 -0.042446
C175  C     C_R   0.297029 0.856717 0.643295 -0.057170
C176  C     C_R   0.127201 0.691219 0.627074 -0.053651
C177  C     C_R   0.872996 0.308829 0.372856 -0.031978
C178  C     C_R   0.691046 0.872933 0.626928 -0.050276
C179  C     C_R   0.570620 0.798005 0.701683 0.800036
C180  C     C_R   0.308369 0.127134 0.372895 -0.034446
C181  C     C_R   0.872945 0.309013 0.626928 -0.045696
C182  C     C_R   0.143349 0.702969 0.356665 -0.054170
C183  C     C_R   0.308366 0.127129 0.627100 -0.052007
C184  C     C_R   0.691130 0.872989 0.372870 -0.043642
C185  C     C_R   0.808942 0.372926 0.626914 -0.045228
C186  C     C_R   0.191168 0.627082 0.372809 -0.044695
C187  C     C_R   0.627232 0.372769 0.191756 -0.042792
C188  C     C_R   0.372842 0.627190 0.808318 -0.046764
C189  C     C_R   0.191610 0.372921 0.372928 -0.057660
C190  C     C_R   0.300261 0.199739 0.567861 0.809218
C191  C     C_R   0.808436 0.627057 0.627039 -0.046822
C192  C     C_R   0.356895 0.356898 0.797189 -0.067086
C193  C     C_R   0.627151 0.627032 0.191191 -0.044655
C194  C     C_R   0.808793 0.627046 0.372848 -0.042149
C195  C     C_R   0.191796 0.372755 0.627228 -0.043331
C196  C     C_R   0.627130 0.627132 0.808361 -0.050414
C197  C     C_R   0.372840 0.372838 0.191691 -0.056433
C198  C     C_R   0.190966 0.627076 0.626960 -0.052739
C199  C     C_R   0.797162 0.356784 0.356812 -0.068238
C200  C     C_R   0.372939 0.627174 0.191136 -0.045148
C201  C     C_R   0.702036 0.798273 0.429329 0.797364
C202  C     C_R   0.627112 0.372896 0.808410 -0.055210
C203  C     C_R   0.627261 0.191759 0.372752 -0.042384
C204  C     C_R   0.372945 0.808958 0.627153 -0.042764
C205  C     C_R   0.627098 0.808902 0.626930 -0.043631
C206  C     C_R   0.372764 0.191797 0.372771 -0.174649
C207  C     C_R   0.356681 0.797086 0.356714 -0.057988
C208  C     C_R   0.627045 0.191031 0.626880 -0.044950
C209  C     C_R   0.372772 0.191776 0.627214 -0.043097
C210  C     C_R   0.643251 0.797118 0.356744 -0.061009
C211  C     C_2   0.771088 0.901932 0.098047 0.925812
C212  C     C_R   0.570610 0.201985 0.701667 0.802874
C213  C     C_2   0.229160 0.098263 0.901802 0.929941
C214  C     C_2   0.095537 0.905341 0.223064 0.923251
C215  C     C_2   0.902088 0.097904 0.771359 0.928131
C216  C     C_2   0.258521 0.857241 0.857063 0.914673
C217  C     C_2   0.777373 0.094300 0.095212 0.918154
C218  C     C_2   0.901875 0.901934 0.771009 0.926509
C219  C     C_2   0.098327 0.098284 0.229314 0.928874
C220  C     C_2   0.771265 0.097893 0.902147 0.910677
C221  C     C_2   0.258550 0.857210 0.142777 0.913417
C222  C     C_2   0.098103 0.098130 0.770963 0.925920
C223  C     C_R   0.298226 0.702081 0.070721 0.795358
C224  C     C_R   0.429300 0.798249 0.297947 0.808691
C225  C     C_2   0.901268 0.901227 0.229913 0.931202
C226  C     C_2   0.229075 0.098218 0.098151 0.929996
C227  C     C_2   0.770651 0.901626 0.901664 0.927651
C228  C     C_2   0.858138 0.141847 0.258354 0.925586
C229  C     C_2   0.095144 0.905664 0.777495 0.904963
C230  C     C_2   0.097949 0.228739 0.902077 0.927475
C231  C     C_2   0.902073 0.771333 0.097906 0.925789
C232  C     C_2   0.095543 0.776838 0.094650 0.921764
C233  C     C_2   0.901492 0.229563 0.901523 0.929583
C234  C     C_2   0.901998 0.771176 0.902034 0.926473
C235  C     C_R   0.699766 0.199768 0.432102 0.797651
C236  C     C_2   0.098001 0.228846 0.097974 0.926434
C237  C     C_2   0.905625 0.222757 0.095254 0.924397
C238  C     C_2   0.095523 0.776873 0.905382 0.922129
C239  C     C_2   0.270871 0.401763 0.098168 0.928859
C240  C     C_2   0.728846 0.598022 0.902021 0.926039
C241  C     C_2   0.098320 0.401686 0.729238 0.930978
C242  C     C_2   0.905647 0.595257 0.277415 0.919068
C243  C     C_2   0.729484 0.401581 0.901606 0.929813
C244  C     C_2   0.241457 0.642738 0.142715 0.914957
C245  C     C_2   0.904673 0.405563 0.277200 0.922702
C246  C     C_R   0.298248 0.797952 0.570688 0.804581
C247  C     C_2   0.142581 0.642728 0.758519 0.915133
C248  C     C_2   0.270697 0.598346 0.901634 0.930003
C249  C     C_2   0.728797 0.402059 0.097938 0.925954
C250  C     C_2   0.094707 0.595575 0.276780 0.920826
C251  C     C_2   0.858104 0.358107 0.758379 0.930129
C252  C     C_2   0.722559 0.595294 0.094330 0.922838
C253  C     C_2   0.277254 0.405571 0.904705 0.924670
C254  C     C_2   0.901623 0.598372 0.729383 0.931222
C255  C     C_2   0.097962 0.402039 0.271172 0.926338
C256  C     C_2   0.641881 0.141884 0.758345 0.927024
C257  C     C_R   0.432954 0.800801 0.699197 0.803766
C258  C     C_2   0.405281 0.904436 0.276745 0.921856
C259  C     C_2   0.598580 0.729639 0.901418 0.929749
C260  C     C_2   0.402025 0.271225 0.097948 0.927487
C261  C     C_2   0.594640 0.904501 0.276863 0.922029
C262  C     C_2   0.401837 0.098132 0.729049 0.928221
C263  C     C_2   0.597964 0.271177 0.097959 0.926609
C264  C     C_2   0.402140 0.728640 0.902181 0.914137
C265  C     C_2   0.404268 0.905166 0.723495 0.924472
C266  C     C_2   0.598041 0.098039 0.271093 0.926131
C267  C     C_2   0.405575 0.277221 0.904713 0.924101
C268  C     C_R   0.567876 0.199741 0.300259 0.809957
C269  C     C_2   0.642610 0.758469 0.142779 0.915399
C270  C     C_2   0.402055 0.097952 0.271254 0.924051
C271  C     C_2   0.641997 0.857982 0.758386 0.928644
C272  C     C_2   0.404413 0.723205 0.094655 0.917784
C273  C     C_2   0.598355 0.270603 0.901669 0.927634
C274  C     C_2   0.857961 0.758388 0.357930 0.926497
C275  C     C_2   0.097937 0.271220 0.597913 0.924990
C276  C     C_2   0.277425 0.904792 0.405576 0.907949
C277  C     C_2   0.722640 0.094360 0.595232 0.922068
C278  C     C_2   0.098047 0.271084 0.402020 0.926427
C279  C     C_R   0.297960 0.798274 0.429334 0.797144
C280  C     C_2   0.901867 0.729103 0.598153 0.928504
C281  C     C_2   0.729353 0.098378 0.401658 0.927453
C282  C     C_2   0.241463 0.857394 0.642637 0.913088
C283  C     C_2   0.094772 0.723367 0.595634 0.923212
C284  C     C_2   0.904856 0.277475 0.405693 0.903167
C285  C     C_2   0.722785 0.905599 0.595280 0.920592
C286  C     C_2   0.271068 0.098083 0.401990 0.924187
C287  C     C_2   0.905701 0.277465 0.595244 0.918776
C288  C     C_2   0.142816 0.758536 0.357241 0.912967
C289  C     C_2   0.271004 0.098112 0.598046 0.927629
C290  C     C_R   0.699143 0.199144 0.566956 0.795126
C291  C     C_2   0.723092 0.904529 0.405419 0.922794
C292  C     C_2   0.777860 0.405877 0.594919 0.909973
C293  C     C_2   0.223097 0.595540 0.405368 0.922956
C294  C     C_2   0.598461 0.401544 0.229504 0.929299
C295  C     C_2   0.402394 0.597677 0.771740 0.915876
C296  C     C_2   0.228970 0.401957 0.401971 0.928994
C297  C     C_2   0.771310 0.597887 0.597840 0.923723
C298  C     C_2   0.358228 0.358243 0.741642 0.929460
C299  C     C_2   0.594669 0.595529 0.223260 0.923407
C300  C     C_2   0.776637 0.595612 0.405307 0.923632
C301  C     C_R   0.570679 0.798268 0.297959 0.803830
C302  C     C_2   0.229571 0.401532 0.598456 0.928996
C303  C     C_2   0.598021 0.598015 0.771127 0.924985
C304  C     C_2   0.401802 0.401800 0.229167 0.928351
C305  C     C_2   0.222517 0.594344 0.595244 0.920469
C306  C     C_2   0.741631 0.358033 0.358063 0.931611
C307  C     C_2   0.404495 0.594618 0.223055 0.922492
C308  C     C_2   0.598005 0.402035 0.771200 0.927109
C309  C     C_2   0.598434 0.229419 0.401563 0.932320
C310  C     C_2   0.404599 0.777318 0.594461 0.916436
C311  C     C_2   0.594225 0.777656 0.594992 0.910188
C312  C     C_R   0.432126 0.199745 0.699740 0.802440
C313  C     C_2   0.401638 0.229655 0.401651 0.972320
C314  C     C_2   0.357845 0.741560 0.357922 0.924374
C315  C     C_2   0.594108 0.222160 0.594909 0.906707
C316  C     C_2   0.401563 0.229508 0.598402 0.933023
C317  C     C_2   0.642099 0.741588 0.357880 0.924540
C318  C     C_R   0.699154 0.800848 0.566969 0.803289
C319  C     C_R   0.699754 0.300245 0.932120 0.809929
C320  C     C_R   0.300258 0.199745 0.432128 0.783864
C321  C     C_R   0.800854 0.300851 0.566963 0.800227
C322  C     C_R   0.202073 0.701767 0.429290 0.792131
C323  C     C_R   0.800275 0.567844 0.699713 0.806564
C324  C     C_R   0.199706 0.432172 0.300297 0.797190
C325  C     C_R   0.797953 0.701738 0.429321 0.800146
C326  C     C_R   0.199732 0.300265 0.567855 0.807190
C327  C     C_R   0.798299 0.429360 0.298000 0.804517
C328  C     C_R   0.202037 0.570682 0.701735 0.800925
C329  C     C_R   0.199182 0.699182 0.567014 0.799068
C330  C     C_R   0.070720 0.702083 0.701767 0.802327
C331  C     C_R   0.798302 0.297992 0.429373 0.802924
C332  C     C_R   0.199762 0.432106 0.699754 0.801772
C333  C     C_R   0.800826 0.567003 0.300832 0.812857
C334  C     C_R   0.199714 0.300289 0.432169 0.795757
C335  C     C_R   0.800293 0.699706 0.567821 0.806185
C336  C     C_R   0.199207 0.567054 0.300797 0.802645
C337  C     C_R   0.798007 0.429381 0.701678 0.803564
C338  C     C_R   0.699176 0.567014 0.199172 0.807509
C339  C     C_R   0.297999 0.429371 0.798310 0.803526
C340  C     C_R   0.432966 0.699194 0.199190 0.805102
C341  C     C_R   0.932993 0.300824 0.300831 0.796919
C342  C     C_R   0.567858 0.300271 0.800274 0.802918
C343  C     C_R   0.300263 0.432133 0.199733 0.803875
C344  C     C_R   0.699717 0.567843 0.800289 0.802157
C345  C     C_R   0.567863 0.300263 0.199731 0.807401
C346  C     C_R   0.432174 0.699716 0.800292 0.795061
C347  C     C_R   0.300261 0.567878 0.800255 0.798332
C348  C     C_R   0.699741 0.432128 0.199736 0.796668
C349  C     C_R   0.567891 0.699754 0.800246 0.795796
C350  C     C_R   0.432153 0.300277 0.199717 0.795158
C351  C     C_R   0.699736 0.432135 0.800270 0.798038
C352  C     C_R   0.699748 0.699744 0.932132 0.810975
C353  C     C_R   0.298234 0.570712 0.202066 0.808435
C354  C     C_R   0.429371 0.298001 0.798311 0.804706
C355  C     C_R   0.570691 0.701744 0.202056 0.797484
C356  C     C_R   0.932119 0.199742 0.800260 0.800125
C357  C     C_R   0.067044 0.800798 0.199196 0.797327
C358  C     C_R   0.800846 0.199152 0.066976 0.800585
C359  C     C_R   0.201779 0.797917 0.929265 0.801687
C360  C     C_R   0.067856 0.199731 0.199723 0.806454
C361  C     C_R   0.932147 0.800279 0.800283 0.799978
C362  C     C_R   0.199720 0.199726 0.932157 0.802577
C363  C     C_R   0.300281 0.300276 0.067842 0.799473
C364  C     C_R   0.800279 0.800280 0.067841 0.797136
C365  C     C_R   0.932097 0.800232 0.199756 0.797681
C366  C     C_R   0.067840 0.199719 0.800289 0.803040
C367  C     C_R   0.800270 0.800268 0.932150 0.806279
C368  C     C_R   0.199717 0.199722 0.067837 0.801521
C369  C     C_R   0.067013 0.800817 0.800822 0.794708
C370  C     C_R   0.929375 0.201996 0.201686 0.806341
C371  C     C_R   0.201775 0.797915 0.070726 0.797524
C372  C     C_R   0.800245 0.199748 0.932126 0.806542
C373  C     C_R   0.798011 0.070617 0.201680 0.808229
C374  C     C_R   0.929356 0.297991 0.701699 0.807523
C375  C     C_R   0.201737 0.929311 0.797946 0.792483
C376  C     C_R   0.800252 0.932122 0.800260 0.798627
C377  C     C_R   0.199743 0.067871 0.199735 0.804672
C378  C     C_R   0.201778 0.929270 0.202082 0.800764
C379  C     C_R   0.800284 0.067832 0.800294 0.797000
C380  C     C_R   0.199735 0.067867 0.800267 0.803443
C381  C     C_R   0.800223 0.932088 0.199766 0.813288
C382  C     C_R   0.828076 0.892812 0.171928 -0.183624
C383  C     C_R   0.171836 0.107100 0.828159 -0.187273
C384  C     C_R   0.176559 0.886443 0.177913 -0.175502
Cu1   Cu    Cu3+1 0.000000 0.784800 0.284800 1.099405
Cu2   Cu    Cu3+1 0.784800 0.715200 0.000000 1.083475
Cu3   Cu    Cu3+1 0.215200 0.000000 0.715200 1.106280
Cu4   Cu    Cu3+1 0.784800 0.000000 0.284800 1.086210
Cu5   Cu    Cu3+1 0.215200 0.715200 0.000000 1.091898
Cu6   Cu    Cu3+1 0.784800 0.284800 0.000000 1.083835
Cu7   Cu    Cu3+1 0.215200 0.000000 0.284800 1.089994
Cu8   Cu    Cu3+1 0.784800 0.000000 0.715200 1.083902
Cu9   Cu    Cu3+1 0.715200 0.000000 0.784800 1.092816
Cu10  Cu    Cu3+1 0.284800 0.000000 0.215200 1.097107
Cu11  Cu    Cu3+1 0.000000 0.715200 0.784800 1.095501
Cu12  Cu    Cu3+1 0.000000 0.215200 0.715200 1.082632
Cu13  Cu    Cu3+1 0.000000 0.284800 0.215200 1.083274
Cu14  Cu    Cu3+1 0.284800 0.000000 0.784800 1.098375
Cu15  Cu    Cu3+1 0.715200 0.000000 0.215200 1.079423
Cu16  Cu    Cu3+1 0.000000 0.284800 0.784800 1.083019
Cu17  Cu    Cu3+1 0.000000 0.715200 0.215200 1.080331
Cu18  Cu    Cu3+1 0.500000 0.284800 0.284800 1.092521
Cu19  Cu    Cu3+1 0.500000 0.715200 0.715200 1.108042
Cu20  Cu    Cu3+1 0.284800 0.284800 0.500000 1.092423
Cu21  Cu    Cu3+1 0.715200 0.715200 0.500000 1.094171
Cu22  Cu    Cu3+1 0.500000 0.284800 0.715200 1.096212
Cu23  Cu    Cu3+1 0.284800 0.784800 0.000000 1.120500
Cu24  Cu    Cu3+1 0.500000 0.715200 0.284800 1.084959
Cu25  Cu    Cu3+1 0.715200 0.284800 0.500000 1.105092
Cu26  Cu    Cu3+1 0.284800 0.715200 0.500000 1.088488
Cu27  Cu    Cu3+1 0.715200 0.500000 0.715200 1.096315
Cu28  Cu    Cu3+1 0.284800 0.500000 0.284800 1.083779
Cu29  Cu    Cu3+1 0.715200 0.500000 0.284800 1.085726
Cu30  Cu    Cu3+1 0.284800 0.500000 0.715200 1.094976
Cu31  Cu    Cu3+1 0.500000 0.784800 0.784800 1.090204
Cu32  Cu    Cu3+1 0.500000 0.215200 0.215200 1.082164
Cu33  Cu    Cu3+1 0.784800 0.784800 0.500000 1.086256
Cu34  Cu    Cu3+1 0.715200 0.215200 0.000000 1.093659
Cu35  Cu    Cu3+1 0.215200 0.215200 0.500000 1.082129
Cu36  Cu    Cu3+1 0.500000 0.784800 0.215200 1.092223
Cu37  Cu    Cu3+1 0.500000 0.215200 0.784800 1.085192
Cu38  Cu    Cu3+1 0.215200 0.784800 0.500000 1.122553
Cu39  Cu    Cu3+1 0.784800 0.215200 0.500000 1.096310
Cu40  Cu    Cu3+1 0.215200 0.500000 0.215200 1.095319
Cu41  Cu    Cu3+1 0.784800 0.500000 0.784800 1.082836
Cu42  Cu    Cu3+1 0.215200 0.500000 0.784800 1.096865
Cu43  Cu    Cu3+1 0.784800 0.500000 0.215200 1.086397
Cu44  Cu    Cu3+1 0.000000 0.784800 0.715200 1.089667
Cu45  Cu    Cu3+1 0.000000 0.215200 0.284800 1.093012
Cu46  Cu    Cu3+1 0.715200 0.784800 0.000000 1.094153
Cu47  Cu    Cu3+1 0.284800 0.215200 0.000000 1.084524
Cu48  Cu    Cu3+1 0.215200 0.284800 0.000000 1.083214
H1    H     H_    0.698447 0.916181 0.083760 0.326488
H2    H     H_    0.322309 0.828593 0.170972 0.364365
H3    H     H_    0.083998 0.083960 0.698241 0.326931
H4    H     H_    0.914634 0.914445 0.302966 0.324030
H5    H     H_    0.301814 0.084204 0.084132 0.330249
H6    H     H_    0.697808 0.915460 0.915340 0.319843
H7    H     H_    0.887906 0.111928 0.320826 0.340810
H8    H     H_    0.040499 0.957422 0.775540 0.375309
H9    H     H_    0.083585 0.301340 0.916420 0.325892
H10   H     H_    0.916550 0.698778 0.083457 0.325770
H11   H     H_    0.076127 0.707220 0.073202 0.329132
H12   H     H_    0.301922 0.084292 0.915759 0.331001
H13   H     H_    0.915171 0.302477 0.915051 0.319136
H14   H     H_    0.916286 0.698544 0.916335 0.324934
H15   H     H_    0.083729 0.301486 0.083695 0.324526
H16   H     H_    0.927339 0.292207 0.075518 0.327736
H17   H     H_    0.076057 0.707255 0.926815 0.329150
H18   H     H_    0.198116 0.415735 0.084171 0.327988
H19   H     H_    0.801483 0.583755 0.916316 0.324347
H20   H     H_    0.084436 0.415557 0.802061 0.331742
H21   H     H_    0.927476 0.575437 0.208027 0.324916
H22   H     H_    0.802379 0.415310 0.915211 0.319666
H23   H     H_    0.076021 0.926752 0.292673 0.333418
H24   H     H_    0.177670 0.671346 0.170825 0.364236
H25   H     H_    0.924359 0.427295 0.207726 0.325885
H26   H     H_    0.169768 0.672290 0.822320 0.369928
H27   H     H_    0.197930 0.584321 0.915574 0.331439
H28   H     H_    0.801412 0.416440 0.083605 0.325537
H29   H     H_    0.073349 0.576177 0.207110 0.327927
H30   H     H_    0.887960 0.387934 0.820852 0.339111
H31   H     H_    0.791920 0.575459 0.072511 0.327987
H32   H     H_    0.207793 0.427210 0.924388 0.329284
H33   H     H_    0.915386 0.584605 0.802259 0.330804
H34   H     H_    0.916591 0.083432 0.698785 0.326473
H35   H     H_    0.083671 0.416332 0.198506 0.323910
H36   H     H_    0.611963 0.112111 0.820819 0.343649
H37   H     H_    0.426625 0.923824 0.207065 0.330214
H38   H     H_    0.585024 0.802590 0.914806 0.323001
H39   H     H_    0.416330 0.198604 0.083636 0.325090
H40   H     H_    0.573206 0.923891 0.207210 0.329123
H41   H     H_    0.415925 0.084022 0.801793 0.329466
H42   H     H_    0.583615 0.198545 0.083681 0.326046
H43   H     H_    0.454680 0.739911 0.954988 0.357541
H44   H     H_    0.423396 0.926356 0.793295 0.335113
H45   H     H_    0.322216 0.829544 0.827864 0.366177
H46   H     H_    0.583755 0.083781 0.198424 0.325200
H47   H     H_    0.427213 0.207749 0.924392 0.328381
H48   H     H_    0.669766 0.822225 0.172412 0.369682
H49   H     H_    0.416415 0.083598 0.198623 0.325783
H50   H     H_    0.612259 0.887698 0.820946 0.341422
H51   H     H_    0.423747 0.792847 0.073183 0.331952
H52   H     H_    0.584510 0.197743 0.915351 0.322061
H53   H     H_    0.887708 0.820981 0.387576 0.341561
H54   H     H_    0.083559 0.198605 0.583573 0.323722
H55   H     H_    0.275399 0.959502 0.457296 0.365885
H56   H     H_    0.707992 0.072515 0.075332 0.324188
H57   H     H_    0.792040 0.072580 0.575497 0.326514
H58   H     H_    0.083759 0.198415 0.416181 0.325083
H59   H     H_    0.915963 0.801844 0.584134 0.329579
H60   H     H_    0.802186 0.084519 0.415378 0.320731
H61   H     H_    0.177577 0.829448 0.671264 0.362230
H62   H     H_    0.073604 0.793117 0.576413 0.336529
H63   H     H_    0.959474 0.275463 0.457525 0.371573
H64   H     H_    0.792243 0.927315 0.575587 0.324756
H65   H     H_    0.198402 0.083787 0.416152 0.327262
H66   H     H_    0.927505 0.208139 0.575296 0.326122
H67   H     H_    0.916139 0.916076 0.698311 0.326906
H68   H     H_    0.171466 0.822316 0.329060 0.361520
H69   H     H_    0.198299 0.083970 0.583898 0.328882
H70   H     H_    0.792709 0.923945 0.426894 0.323340
H71   H     H_    0.776308 0.457516 0.540083 0.364257
H72   H     H_    0.292695 0.576135 0.426860 0.324902
H73   H     H_    0.584907 0.415213 0.302432 0.320810
H74   H     H_    0.455443 0.545338 0.760949 0.357523
H75   H     H_    0.301670 0.416109 0.416127 0.327797
H76   H     H_    0.698737 0.583353 0.583448 0.328496
H77   H     H_    0.388132 0.388158 0.679227 0.341163
H78   H     H_    0.084480 0.084405 0.302150 0.328858
H79   H     H_    0.573288 0.576263 0.292965 0.324605
H80   H     H_    0.706885 0.576449 0.426572 0.326671
H81   H     H_    0.302492 0.415202 0.584944 0.321380
H82   H     H_    0.583688 0.583727 0.698476 0.329025
H83   H     H_    0.415799 0.415788 0.301948 0.327648
H84   H     H_    0.291852 0.572518 0.575328 0.329444
H85   H     H_    0.679162 0.387847 0.387847 0.341149
H86   H     H_    0.424059 0.573213 0.292668 0.324495
H87   H     H_    0.583664 0.416387 0.698558 0.332309
H88   H     H_    0.584854 0.302282 0.415382 0.326759
H89   H     H_    0.759779 0.045350 0.954924 0.357519
H90   H     H_    0.424478 0.707913 0.572820 0.331421
H91   H     H_    0.542730 0.775811 0.540042 0.357633
H92   H     H_    0.367913 0.288043 0.367878 0.315764
H93   H     H_    0.387580 0.679015 0.387656 0.340896
H94   H     H_    0.542287 0.223798 0.540263 0.377570
H95   H     H_    0.415319 0.302407 0.584840 0.326835
H96   H     H_    0.612437 0.678969 0.387587 0.342233
O1    O     O_R   0.947350 0.816370 0.242430 -0.571504
O2    O     O_R   0.052650 0.816370 0.242430 -0.567435
O3    O     O_R   0.257570 0.183630 0.447350 -0.561079
O4    O     O_R   0.552650 0.816370 0.257570 -0.567693
O5    O     O_R   0.447350 0.183630 0.742430 -0.562784
O6    O     O_R   0.257570 0.816370 0.447350 -0.563077
O7    O     O_R   0.742430 0.183630 0.552650 -0.562775
O8    O     O_R   0.447350 0.183630 0.257570 -0.561456
O9    O     O_R   0.552650 0.816370 0.742430 -0.561252
O10   O     O_R   0.742430 0.183630 0.447350 -0.566820
O11   O     O_R   0.257570 0.816370 0.552650 -0.558288
O12   O     O_R   0.552650 0.183630 0.742430 -0.560619
O13   O     O_R   0.242430 0.183630 0.947350 -0.564303
O14   O     O_R   0.447350 0.816370 0.257570 -0.565853
O15   O     O_R   0.257570 0.183630 0.552650 -0.564854
O16   O     O_R   0.742430 0.816370 0.447350 -0.570275
O17   O     O_R   0.183630 0.742430 0.552650 -0.563956
O18   O     O_R   0.816370 0.257570 0.447350 -0.561272
O19   O     O_R   0.183630 0.552650 0.257570 -0.569087
O20   O     O_R   0.816370 0.447350 0.742430 -0.560694
O21   O     O_R   0.183630 0.257570 0.447350 -0.563874
O22   O     O_R   0.816370 0.742430 0.552650 -0.560688
O23   O     O_R   0.183630 0.447350 0.742430 -0.563121
O24   O     O_R   0.757570 0.816370 0.052650 -0.570177
O25   O     O_R   0.816370 0.552650 0.257570 -0.561940
O26   O     O_R   0.816370 0.257570 0.552650 -0.561784
O27   O     O_R   0.183630 0.742430 0.447350 -0.562278
O28   O     O_R   0.816370 0.447350 0.257570 -0.565158
O29   O     O_R   0.183630 0.552650 0.742430 -0.558505
O30   O     O_R   0.816370 0.742430 0.447350 -0.563635
O31   O     O_R   0.183630 0.257570 0.552650 -0.564819
O32   O     O_R   0.816370 0.552650 0.742430 -0.560645
O33   O     O_R   0.183630 0.447350 0.257570 -0.565017
O34   O     O_R   0.257570 0.552650 0.816370 -0.569515
O35   O     O_R   0.052650 0.183630 0.242430 -0.560148
O36   O     O_R   0.742430 0.447350 0.183630 -0.567842
O37   O     O_R   0.447350 0.257570 0.816370 -0.564320
O38   O     O_R   0.552650 0.742430 0.183630 -0.562380
O39   O     O_R   0.742430 0.447350 0.816370 -0.571508
O40   O     O_R   0.257570 0.552650 0.183630 -0.560109
O41   O     O_R   0.552650 0.742430 0.816370 -0.571006
O42   O     O_R   0.447350 0.257570 0.183630 -0.563948
O43   O     O_R   0.742430 0.552650 0.183630 -0.562437
O44   O     O_R   0.257570 0.447350 0.816370 -0.563666
O45   O     O_R   0.552650 0.257570 0.183630 -0.565042
O46   O     O_R   0.947350 0.816370 0.757570 -0.564755
O47   O     O_R   0.447350 0.742430 0.816370 -0.565507
O48   O     O_R   0.257570 0.447350 0.183630 -0.560268
O49   O     O_R   0.742430 0.552650 0.816370 -0.564799
O50   O     O_R   0.447350 0.742430 0.183630 -0.563899
O51   O     O_R   0.552650 0.257570 0.816370 -0.570433
O52   O     O_R   0.947350 0.316370 0.742430 -0.560699
O53   O     O_R   0.052650 0.683630 0.257570 -0.566481
O54   O     O_R   0.742430 0.316370 0.052650 -0.565507
O55   O     O_R   0.257570 0.683630 0.947350 -0.565943
O56   O     O_R   0.052650 0.316370 0.257570 -0.565327
O57   O     O_R   0.757570 0.183630 0.052650 -0.562878
O58   O     O_R   0.947350 0.683630 0.742430 -0.560701
O59   O     O_R   0.257570 0.316370 0.947350 -0.561865
O60   O     O_R   0.742430 0.683630 0.052650 -0.563833
O61   O     O_R   0.947350 0.683630 0.257570 -0.562303
O62   O     O_R   0.052650 0.316370 0.742430 -0.560425
O63   O     O_R   0.742430 0.683630 0.947350 -0.564678
O64   O     O_R   0.257570 0.316370 0.052650 -0.565264
O65   O     O_R   0.052650 0.683630 0.742430 -0.559338
O66   O     O_R   0.947350 0.316370 0.257570 -0.565051
O67   O     O_R   0.257570 0.683630 0.052650 -0.561084
O68   O     O_R   0.242430 0.816370 0.947350 -0.553870
O69   O     O_R   0.742430 0.316370 0.947350 -0.563994
O70   O     O_R   0.683630 0.742430 0.052650 -0.559313
O71   O     O_R   0.316370 0.257570 0.947350 -0.561990
O72   O     O_R   0.683630 0.052650 0.257570 -0.567362
O73   O     O_R   0.316370 0.947350 0.742430 -0.569545
O74   O     O_R   0.683630 0.257570 0.947350 -0.563331
O75   O     O_R   0.316370 0.742430 0.052650 -0.569291
O76   O     O_R   0.683630 0.947350 0.742430 -0.556583
O77   O     O_R   0.316370 0.052650 0.257570 -0.564613
O78   O     O_R   0.316370 0.257570 0.052650 -0.565290
O79   O     O_R   0.183630 0.242430 0.052650 -0.564450
O80   O     O_R   0.683630 0.742430 0.947350 -0.559034
O81   O     O_R   0.316370 0.947350 0.257570 -0.567991
O82   O     O_R   0.683630 0.052650 0.742430 -0.556484
O83   O     O_R   0.316370 0.742430 0.947350 -0.566435
O84   O     O_R   0.683630 0.257570 0.052650 -0.564897
O85   O     O_R   0.316370 0.052650 0.742430 -0.563797
O86   O     O_R   0.683630 0.947350 0.257570 -0.566285
O87   O     O_R   0.257570 0.052650 0.316370 -0.564146
O88   O     O_R   0.742430 0.947350 0.683630 -0.563479
O89   O     O_R   0.947350 0.257570 0.316370 -0.566534
O90   O     O_R   0.816370 0.757570 0.947350 -0.565371
O91   O     O_R   0.052650 0.742430 0.683630 -0.567323
O92   O     O_R   0.742430 0.947350 0.316370 -0.559940
O93   O     O_R   0.257570 0.052650 0.683630 -0.560759
O94   O     O_R   0.052650 0.742430 0.316370 -0.554437
O95   O     O_R   0.947350 0.257570 0.683630 -0.564045
O96   O     O_R   0.742430 0.052650 0.683630 -0.563441
O97   O     O_R   0.257570 0.947350 0.316370 -0.566037
O98   O     O_R   0.052650 0.257570 0.683630 -0.563739
O99   O     O_R   0.947350 0.742430 0.316370 -0.557079
O100  O     O_R   0.257570 0.947350 0.683630 -0.562349
O101  O     O_R   0.183630 0.052650 0.757570 -0.563065
O102  O     O_R   0.742430 0.052650 0.316370 -0.572156
O103  O     O_R   0.947350 0.742430 0.683630 -0.563106
O104  O     O_R   0.052650 0.257570 0.316370 -0.565229
O105  O     O_2   0.785406 0.932605 0.067339 -0.533225
O106  O     O_R   0.719959 0.894142 0.105833 -0.725444
O107  O     O_2   0.215094 0.067663 0.932696 -0.544765
O108  O     O_R   0.280227 0.106194 0.893727 -0.702074
O109  O     O_2   0.065119 0.933301 0.203581 -0.524650
O110  O     O_R   0.099818 0.903057 0.275144 -0.719597
O111  O     O_2   0.932697 0.067255 0.785867 -0.533891
O112  O     O_R   0.052650 0.183630 0.757570 -0.564038
O113  O     O_R   0.816370 0.947350 0.242430 -0.558770
O114  O     O_R   0.894479 0.105549 0.720163 -0.704633
O115  O     O_2   0.281102 0.885105 0.885451 -0.528581
O116  O     O_R   0.284648 0.825864 0.824519 -0.744274
O117  O     O_2   0.797118 0.066330 0.064977 -0.536714
O118  O     O_R   0.725285 0.096352 0.099190 -0.706086
O119  O     O_2   0.932357 0.932850 0.785261 -0.551115
O120  O     O_R   0.894161 0.893975 0.719878 -0.702669
O121  O     O_2   0.067678 0.067401 0.215343 -0.541022
O122  O     O_R   0.106352 0.106406 0.280375 -0.702040
O123  O     O_2   0.726427 0.104283 0.895673 -0.549921
O124  O     O_R   0.183630 0.757570 0.947350 -0.566369
O125  O     O_R   0.788205 0.063043 0.937156 -0.697025
O126  O     O_2   0.281075 0.885453 0.114715 -0.532454
O127  O     O_R   0.284744 0.825075 0.174541 -0.739333
O128  O     O_2   0.067258 0.067549 0.785168 -0.552041
O129  O     O_R   0.106058 0.105939 0.719843 -0.701279
O130  O     O_2   0.932230 0.932005 0.216401 -0.541661
O131  O     O_R   0.892785 0.892769 0.280851 -0.704673
O132  O     O_2   0.214955 0.067636 0.067275 -0.545102
O133  O     O_R   0.280157 0.106110 0.106183 -0.701795
O134  O     O_2   0.784557 0.932294 0.932553 -0.546524
O135  O     O_R   0.816370 0.242430 0.052650 -0.562908
O136  O     O_R   0.719623 0.893565 0.893435 -0.704814
O137  O     O_2   0.830588 0.169431 0.282161 -0.568877
O138  O     O_R   0.890665 0.109254 0.283114 -0.702256
O139  O     O_2   0.098450 0.904361 0.731885 -0.556608
O140  O     O_R   0.060400 0.937054 0.800547 -0.699029
O141  O     O_2   0.067293 0.214341 0.932758 -0.526107
O142  O     O_R   0.105667 0.279892 0.894339 -0.704271
O143  O     O_2   0.932689 0.785823 0.067228 -0.526716
O144  O     O_R   0.894443 0.720158 0.105578 -0.703858
O145  O     O_2   0.065045 0.796254 0.066718 -0.521258
O146  O     O_R   0.183630 0.947350 0.242430 -0.567040
O147  O     O_R   0.099914 0.724786 0.096909 -0.722132
O148  O     O_2   0.932253 0.215810 0.932386 -0.529344
O149  O     O_R   0.893300 0.280549 0.893209 -0.705308
O150  O     O_2   0.932681 0.785512 0.932718 -0.526599
O151  O     O_R   0.894223 0.720039 0.894267 -0.702500
O152  O     O_2   0.067321 0.214527 0.067279 -0.528404
O153  O     O_R   0.105786 0.279978 0.105759 -0.704056
O154  O     O_2   0.933535 0.203112 0.064894 -0.520307
O155  O     O_R   0.903551 0.274834 0.099370 -0.707869
O156  O     O_2   0.065074 0.796296 0.933346 -0.520146
O157  O     O_R   0.816370 0.052650 0.757570 -0.566864
O158  O     O_R   0.099842 0.724818 0.903102 -0.722745
O159  O     O_2   0.284954 0.432358 0.067275 -0.540064
O160  O     O_R   0.219799 0.393840 0.106222 -0.702784
O161  O     O_2   0.714520 0.567337 0.932713 -0.528833
O162  O     O_R   0.779981 0.605809 0.894244 -0.702538
O163  O     O_2   0.067555 0.432409 0.715230 -0.553412
O164  O     O_R   0.106382 0.393640 0.780308 -0.701091
O165  O     O_2   0.933508 0.564933 0.297187 -0.524000
O166  O     O_R   0.903663 0.599300 0.225307 -0.706791
O167  O     O_2   0.715688 0.432343 0.932435 -0.529222
O168  O     O_R   0.816370 0.757570 0.052650 -0.566934
O169  O     O_R   0.780483 0.393419 0.893356 -0.705061
O170  O     O_2   0.218960 0.614479 0.114654 -0.535936
O171  O     O_R   0.215230 0.674878 0.174424 -0.736659
O172  O     O_2   0.935073 0.433445 0.296854 -0.519476
O173  O     O_R   0.900511 0.403506 0.225104 -0.707737
O174  O     O_2   0.114806 0.614182 0.781028 -0.534458
O175  O     O_R   0.173652 0.675524 0.784748 -0.744511
O176  O     O_2   0.284757 0.567491 0.932265 -0.539313
O177  O     O_R   0.219634 0.606367 0.893681 -0.724798
O178  O     O_2   0.714433 0.432709 0.067240 -0.526703
O179  O     O_R   0.183630 0.242430 0.947350 -0.564628
O180  O     O_R   0.779940 0.394354 0.105691 -0.705245
O181  O     O_2   0.066735 0.565085 0.296173 -0.521302
O182  O     O_R   0.097033 0.599960 0.224710 -0.722408
O183  O     O_2   0.830514 0.330528 0.782191 -0.561457
O184  O     O_R   0.890686 0.390666 0.783139 -0.703446
O185  O     O_2   0.702787 0.564992 0.066426 -0.521123
O186  O     O_R   0.774649 0.599317 0.096343 -0.706209
O187  O     O_2   0.296888 0.433479 0.935094 -0.525027
O188  O     O_R   0.225179 0.403450 0.900543 -0.705976
O189  O     O_2   0.932369 0.567587 0.715489 -0.554026
O190  O     O_R   0.816370 0.947350 0.757570 -0.566748
O191  O     O_R   0.893500 0.606513 0.780423 -0.700108
O192  O     O_2   0.067292 0.432705 0.285496 -0.526950
O193  O     O_R   0.105728 0.394276 0.220021 -0.704481
O194  O     O_2   0.669523 0.169413 0.782149 -0.565319
O195  O     O_R   0.609256 0.109365 0.783108 -0.701752
O196  O     O_2   0.433256 0.934928 0.296121 -0.520148
O197  O     O_R   0.402945 0.900043 0.224678 -0.721742
O198  O     O_2   0.567733 0.715961 0.932235 -0.561162
O199  O     O_R   0.606897 0.780605 0.893050 -0.703233
O200  O     O_2   0.432686 0.285587 0.067255 -0.526032
O201  O     O_R   0.183630 0.052650 0.242430 -0.563357
O202  O     O_R   0.394272 0.220081 0.105714 -0.704520
O203  O     O_2   0.566727 0.934995 0.296276 -0.520747
O204  O     O_R   0.596896 0.900115 0.224792 -0.722611
O205  O     O_2   0.432409 0.067298 0.714882 -0.546565
O206  O     O_R   0.393997 0.106090 0.780160 -0.701769
O207  O     O_2   0.567322 0.285510 0.067241 -0.525983
O208  O     O_R   0.605686 0.220041 0.105752 -0.703374
O209  O     O_2   0.395825 0.773500 0.895819 -0.560853
O210  O     O_R   0.436956 0.711557 0.937147 -0.698842
O211  O     O_2   0.434753 0.933261 0.704276 -0.540960
O212  O     O_R   0.816370 0.242430 0.947350 -0.564791
O213  O     O_R   0.399731 0.902667 0.775545 -0.717771
O214  O     O_2   0.567366 0.067337 0.285409 -0.526681
O215  O     O_R   0.605815 0.105840 0.219944 -0.703109
O216  O     O_2   0.433488 0.296839 0.935110 -0.520745
O217  O     O_R   0.403449 0.225147 0.900545 -0.706169
O218  O     O_2   0.614886 0.780983 0.114210 -0.536592
O219  O     O_R   0.673620 0.784669 0.175649 -0.744067
O220  O     O_2   0.432688 0.067275 0.285654 -0.525307
O221  O     O_R   0.394349 0.105682 0.220083 -0.704998
O222  O     O_2   0.669605 0.830376 0.782119 -0.565270
O223  O     O_R   0.242430 0.816370 0.052650 -0.556964
O224  O     O_R   0.183630 0.757570 0.052650 -0.568646
O225  O     O_R   0.609478 0.890492 0.783241 -0.702559
O226  O     O_2   0.434854 0.703818 0.066660 -0.551394
O227  O     O_R   0.400034 0.775254 0.096946 -0.718405
O228  O     O_2   0.567607 0.284473 0.932482 -0.530788
O229  O     O_R   0.606445 0.219584 0.893478 -0.703795
O230  O     O_2   0.830237 0.782053 0.330378 -0.559894
O231  O     O_R   0.890530 0.783298 0.390384 -0.703304
O232  O     O_2   0.067273 0.285592 0.567235 -0.537654
O233  O     O_R   0.105648 0.220074 0.605654 -0.702370
O234  O     O_2   0.231835 0.901408 0.404237 -0.552263
O235  O     O_R   0.816370 0.052650 0.242430 -0.560717
O236  O     O_R   0.300421 0.939633 0.436939 -0.712367
O237  O     O_2   0.702931 0.066508 0.564840 -0.520977
O238  O     O_R   0.774722 0.096377 0.599355 -0.707864
O239  O     O_2   0.067585 0.285331 0.432935 -0.551375
O240  O     O_R   0.105734 0.219972 0.394071 -0.703398
O241  O     O_2   0.932671 0.714992 0.567508 -0.546859
O242  O     O_R   0.893912 0.780182 0.606068 -0.702340
O243  O     O_2   0.715429 0.067638 0.432481 -0.530106
O244  O     O_R   0.780385 0.106456 0.393486 -0.706366
O245  O     O_2   0.219066 0.885451 0.614302 -0.534014
O246  O     O_R   0.183630 0.947350 0.757570 -0.567124
O247  O     O_R   0.215125 0.825782 0.674825 -0.744140
O248  O     O_2   0.066649 0.704118 0.565196 -0.541894
O249  O     O_R   0.097293 0.775403 0.600096 -0.717976
O250  O     O_2   0.901541 0.231880 0.404315 -0.552101
O251  O     O_R   0.939589 0.300486 0.437169 -0.697388
O252  O     O_2   0.703151 0.933487 0.564877 -0.522853
O253  O     O_R   0.774861 0.903533 0.599441 -0.707326
O254  O     O_2   0.285329 0.067606 0.432902 -0.553936
O255  O     O_R   0.219952 0.105771 0.394041 -0.703467
O256  O     O_2   0.933781 0.297291 0.565138 -0.543740
O257  O     O_R   0.757570 0.052650 0.816370 -0.568247
O258  O     O_R   0.903611 0.225368 0.599122 -0.706934
O259  O     O_2   0.114588 0.781042 0.385299 -0.531785
O260  O     O_R   0.174958 0.784753 0.325485 -0.740827
O261  O     O_2   0.285194 0.067536 0.567212 -0.551323
O262  O     O_R   0.219905 0.105920 0.605982 -0.700118
O263  O     O_2   0.703673 0.935020 0.433338 -0.522458
O264  O     O_R   0.775146 0.900163 0.403181 -0.709976
O265  O     O_2   0.732256 0.404744 0.598088 -0.542646
O266  O     O_R   0.801148 0.437148 0.560181 -0.711740
O267  O     O_2   0.203647 0.565044 0.433298 -0.522519
O268  O     O_R   0.242430 0.947350 0.183630 -0.558712
O269  O     O_R   0.275154 0.599914 0.403135 -0.709749
O270  O     O_2   0.567646 0.432318 0.215715 -0.529044
O271  O     O_R   0.606733 0.393338 0.280518 -0.705015
O272  O     O_2   0.396129 0.603698 0.726808 -0.541159
O273  O     O_R   0.437476 0.563161 0.789149 -0.710145
O274  O     O_2   0.214776 0.432668 0.432670 -0.524157
O275  O     O_R   0.280071 0.394087 0.394107 -0.716963
O276  O     O_2   0.785758 0.567412 0.567027 -0.557375
O277  O     O_R   0.720146 0.605427 0.605600 -0.702391
O278  O     O_2   0.330666 0.330687 0.717778 -0.564221
O279  O     O_R   0.947350 0.757570 0.816370 -0.564881
O280  O     O_R   0.390824 0.390842 0.716945 -0.706502
O281  O     O_2   0.566766 0.564944 0.203926 -0.522165
O282  O     O_R   0.596959 0.600031 0.275320 -0.710338
O283  O     O_2   0.795876 0.565145 0.433395 -0.548292
O284  O     O_R   0.724603 0.600115 0.402853 -0.708557
O285  O     O_2   0.215834 0.432298 0.567587 -0.530993
O286  O     O_R   0.280553 0.393330 0.606780 -0.704699
O287  O     O_2   0.567441 0.567235 0.785475 -0.548197
O288  O     O_R   0.605725 0.605833 0.719971 -0.702139
O289  O     O_2   0.432543 0.432544 0.215082 -0.526189
O290  O     O_R   0.052650 0.242430 0.183630 -0.564067
O291  O     O_R   0.393823 0.393812 0.280258 -0.717089
O292  O     O_2   0.202709 0.566453 0.564951 -0.523076
O293  O     O_R   0.274612 0.596340 0.599219 -0.703325
O294  O     O_2   0.717848 0.330410 0.330499 -0.558589
O295  O     O_R   0.716858 0.390604 0.390592 -0.708988
O296  O     O_2   0.434882 0.566636 0.203574 -0.523782
O297  O     O_R   0.400252 0.596909 0.275137 -0.709943
O298  O     O_2   0.567468 0.432810 0.785572 -0.546622
O299  O     O_R   0.605676 0.394254 0.720039 -0.702312
O300  O     O_2   0.567418 0.215553 0.432122 -0.549526
O301  O     O_R   0.242430 0.947350 0.816370 -0.561319
O302  O     O_R   0.606771 0.280435 0.393532 -0.702455
O303  O     O_2   0.434848 0.797049 0.566471 -0.566726
O304  O     O_R   0.400597 0.725229 0.596596 -0.700560
O305  O     O_2   0.595395 0.732061 0.598330 -0.543273
O306  O     O_R   0.563029 0.800767 0.560083 -0.715397
O307  O     O_2   0.432352 0.215743 0.432385 -0.485204
O308  O     O_R   0.394217 0.280887 0.394206 -0.695378
O309  O     O_2   0.330115 0.717852 0.330396 -0.557576
O310  O     O_R   0.390420 0.716704 0.390400 -0.708664
O311  O     O_2   0.595306 0.267764 0.598080 -0.543171
O312  O     O_R   0.757570 0.052650 0.183630 -0.563558
O313  O     O_R   0.562733 0.198920 0.560236 -0.700324
O314  O     O_2   0.432205 0.215722 0.567449 -0.550010
O315  O     O_R   0.393462 0.280504 0.606726 -0.702887
O316  O     O_2   0.669697 0.717950 0.330195 -0.561003
O317  O     O_R   0.609627 0.716650 0.390417 -0.709255
O318  O     O_R   0.052650 0.242430 0.816370 -0.564630
O319  O     O_R   0.757570 0.183630 0.947350 -0.561964
O320  O     O_R   0.947350 0.757570 0.183630 -0.567306
O321  O     O_R   0.242430 0.052650 0.183630 -0.560484
O322  O     O_R   0.757570 0.947350 0.816370 -0.571641
O323  O     O_R   0.052650 0.757570 0.183630 -0.568196
O324  O     O_R   0.947350 0.242430 0.816370 -0.571126
O325  O     O_R   0.757570 0.947350 0.183630 -0.567485
O326  O     O_R   0.242430 0.052650 0.816370 -0.560794
O327  O     O_R   0.947350 0.242430 0.183630 -0.564820
O328  O     O_R   0.052650 0.757570 0.816370 -0.568251
O329  O     O_R   0.447350 0.316370 0.242430 -0.569241
O330  O     O_R   0.052650 0.816370 0.757570 -0.566326
O331  O     O_R   0.552650 0.683630 0.757570 -0.567451
O332  O     O_R   0.242430 0.316370 0.552650 -0.561893
O333  O     O_R   0.757570 0.683630 0.447350 -0.569405
O334  O     O_R   0.552650 0.316370 0.757570 -0.563223
O335  O     O_R   0.447350 0.683630 0.242430 -0.567545
O336  O     O_R   0.757570 0.316370 0.447350 -0.563353
O337  O     O_R   0.242430 0.683630 0.552650 -0.564138
O338  O     O_R   0.447350 0.683630 0.757570 -0.561212
O339  O     O_R   0.552650 0.316370 0.242430 -0.561784
O340  O     O_R   0.242430 0.683630 0.447350 -0.570787
O341  O     O_R   0.947350 0.183630 0.242430 -0.560608
O342  O     O_R   0.757570 0.316370 0.552650 -0.557194
O343  O     O_R   0.552650 0.683630 0.242430 -0.570426
O344  O     O_R   0.447350 0.316370 0.757570 -0.561156
O345  O     O_R   0.757570 0.683630 0.552650 -0.563558
O346  O     O_R   0.242430 0.316370 0.447350 -0.569334
O347  O     O_R   0.683630 0.242430 0.552650 -0.560911
O348  O     O_R   0.316370 0.757570 0.447350 -0.563196
O349  O     O_R   0.683630 0.552650 0.757570 -0.563841
O350  O     O_R   0.316370 0.447350 0.242430 -0.565493
O351  O     O_R   0.683630 0.757570 0.447350 -0.565316
O352  O     O_R   0.757570 0.816370 0.947350 -0.562620
O353  O     O_R   0.316370 0.242430 0.552650 -0.557819
O354  O     O_R   0.683630 0.447350 0.242430 -0.572204
O355  O     O_R   0.316370 0.552650 0.757570 -0.560132
O356  O     O_R   0.316370 0.757570 0.552650 -0.559511
O357  O     O_R   0.683630 0.242430 0.447350 -0.572059
O358  O     O_R   0.316370 0.447350 0.757570 -0.562295
O359  O     O_R   0.683630 0.552650 0.242430 -0.560755
O360  O     O_R   0.316370 0.242430 0.447350 -0.576168
O361  O     O_R   0.683630 0.757570 0.552650 -0.556738
O362  O     O_R   0.316370 0.552650 0.242430 -0.562132
O363  O     O_R   0.242430 0.183630 0.052650 -0.564103
O364  O     O_R   0.683630 0.447350 0.757570 -0.567020
O365  O     O_R   0.757570 0.552650 0.316370 -0.556996
O366  O     O_R   0.242430 0.447350 0.683630 -0.570531
O367  O     O_R   0.447350 0.757570 0.316370 -0.557739
O368  O     O_R   0.552650 0.242430 0.683630 -0.561576
O369  O     O_R   0.242430 0.447350 0.316370 -0.566891
O370  O     O_R   0.757570 0.552650 0.683630 -0.562766
O371  O     O_R   0.552650 0.242430 0.316370 -0.557615
O372  O     O_R   0.447350 0.757570 0.683630 -0.559491
O373  O     O_R   0.242430 0.552650 0.683630 -0.563171
O374  O     O_R   0.947350 0.183630 0.757570 -0.566939
O375  O     O_R   0.757570 0.447350 0.316370 -0.563190
O376  O     O_R   0.552650 0.757570 0.683630 -0.562346
O377  O     O_R   0.447350 0.242430 0.316370 -0.576032
O378  O     O_R   0.757570 0.447350 0.683630 -0.561720
O379  O     O_R   0.242430 0.552650 0.316370 -0.562405
O380  O     O_R   0.447350 0.242430 0.683630 -0.569834
O381  O     O_R   0.552650 0.757570 0.316370 -0.560256
O382  O     O_R   0.447350 0.816370 0.742430 -0.562102
O383  O     O_R   0.552650 0.183630 0.257570 -0.565249
O384  O     O_R   0.742430 0.816370 0.552650 -0.561610

loop_
_geom_bond_atom_site_label_1
_geom_bond_atom_site_label_2
_ccdc_geom_bond_type
Cu7   Cu10  S    
C355  O343  A    
C73   C206  A    
C288  O260  S    
Cu24  O367  S    
C140  C247  S    
C145  C252  S    
Cu1   O1    S    
Cu9   O322  S    
H33   O191  S    
C222  O128  D    
Cu48  O64   S    
C70   C329  S    
C112  O98   A    
C74   C321  S    
H63   O251  S    
C88   C177  A    
C130  C237  S    
C83   C154  A    
C135  O87   A    
C15   C357  S    
H79   O282  S    
H5    O133  S    
C87   C176  A    
C117  C383  A    
C62   C326  S    
C278  O239  D    
C226  O132  D    
H57   O238  S    
C190  O353  A    
C232  O147  S    
Cu41  O32   S    
C81   C178  A    
Cu16  O62   S    
H59   O242  S    
C250  O181  D    
C362  O179  A    
C312  O380  A    
Cu36  O38   S    
C310  O303  D    
C28   C332  S    
C75   C322  S    
C24   O70   A    
C141  C248  S    
C116  C221  S    
C26   C197  A    
C36   C142  A    
H6    O136  S    
C257  O382  A    
C342  O334  A    
Cu28  O350  S    
H85   O295  S    
Cu12  O95   S    
C146  O72   A    
C367  O352  A    
C39   C338  S    
C246  O356  A    
Cu15  O72   S    
Cu46  O70   S    
C226  O133  S    
C238  O156  D    
C228  O137  D    
C331  O336  A    
C75   C186  A    
C124  O76   A    
C198  C305  S    
C133  C240  S    
C2    O53   A    
C20   C129  A    
Cu47  O363  S    
C171  C277  S    
Cu33  O16   S    
Cu15  O325  S    
Cu11  O328  S    
Cu35  O31   S    
C168  O377  A    
C257  O372  A    
Cu4   Cu15  S    
C80   C146  S    
C43   C208  A    
C58   C164  A    
Cu27  O378  S    
C320  O3    A    
C14   C121  A    
C20   C368  S    
C22   C130  A    
Cu11  O279  S    
C212  O12   A    
C41   C148  A    
Cu7   O97   S    
Cu38  O11   S    
C239  O159  D    
C283  O248  D    
C234  O150  D    
C31   C200  A    
C309  O300  D    
C10   C366  S    
H4    O131  S    
C248  O176  D    
H43   O210  S    
C337  O378  A    
C30   C202  A    
C361  O279  A    
C9    C128  A    
C163  C270  S    
C25   C105  A    
C7    C119  A    
C324  O33   A    
C24   C99   S    
C29   C333  S    
Cu14  O85   S    
C32   C139  A    
Cu28  O369  S    
Cu18  O339  S    
Cu41  O20   S    
C55   C355  S    
C74   C181  A    
Cu45  O35   S    
C17   C127  A    
C334  O21   A    
Cu2   O63   S    
C47   C153  A    
C58   C205  A    
C89   C143  A    
Cu22  Cu37  S    
Cu1   O2    S    
Cu6   Cu34  S    
C25   C364  S    
C340  O50   A    
Cu40  O40   S    
C297  O277  S    
H70   O264  S    
C85   C151  A    
C134  C241  S    
C308  O299  S    
H84   O293  S    
C11   C365  S    
C99   C162  A    
H49   O221  S    
C87   C330  S    
C40   C192  A    
H9    O142  S    
C57   C97   S    
C39   C145  A    
C354  O37   A    
C236  O152  D    
C4    C122  A    
Cu11  Cu44  S    
C289  O261  D    
Cu33  O30   S    
C120  C227  S    
C113  O82   A    
H32   O188  S    
C187  C294  S    
C291  O263  D    
C103  C152  A    
C372  O212  A    
C344  O349  A    
C230  O141  D    
C60   C202  A    
C304  O289  D    
C65   C189  A    
C19   C120  A    
C201  O351  A    
H71   O266  S    
C158  C264  S    
C376  O322  A    
C381  C382  S    
H17   O158  S    
C357  O2    A    
Cu21  Cu33  S    
Cu23  O68   S    
C259  O199  S    
C203  C309  S    
Cu39  O7    S    
C251  O184  S    
C311  O306  S    
C284  O250  D    
C199  C306  S    
Cu25  O336  S    
H12   O108  S    
C14   C130  A    
C174  C281  S    
H35   O193  S    
H47   O217  S    
Cu44  O103  S    
C277  O238  S    
C242  O166  S    
C49   C155  A    
C314  O310  S    
Cu12  Cu16  S    
C105  C211  S    
C79   O85   A    
Cu43  O28   S    
C4    C375  S    
C348  O36   A    
C254  O191  S    
C260  O202  S    
C306  O295  S    
Cu36  O14   S    
C269  O219  S    
C45   C152  A    
C370  O341  A    
Cu17  O61   S    
C21   C359  S    
C154  C261  S    
C341  O66   A    
C42   C324  S    
Cu15  O312  S    
Cu29  O359  S    
H86   O297  S    
C328  O373  A    
C124  O88   A    
H56   O118  S    
C92   C172  A    
C305  O293  S    
C279  O348  A    
H87   O299  S    
Cu31  O9    S    
C347  O355  A    
C294  O271  S    
C185  C292  S    
C324  O369  A    
C337  O20   A    
C97   C142  A    
C68   O83   A    
C108  C215  S    
C67   C203  A    
C100  C137  A    
C80   C174  A    
H76   O277  S    
C137  C243  S    
C350  O42   A    
C50   C345  S    
Cu2   O60   S    
Cu40  O19   S    
C380  O101  A    
Cu6   O54   S    
C264  O210  S    
C3    C115  A    
C27   C196  A    
C69   C175  A    
H22   O169  S    
C70   C176  A    
C344  O49   A    
C319  O69   A    
C315  O311  D    
C351  O364  A    
C4    C109  A    
C34   C141  A    
C148  C254  S    
C30   C351  S    
Cu12  O112  S    
C268  O371  A    
C362  O13   A    
C101  O97   A    
C6    C111  A    
Cu32  O8    S    
C72   C178  A    
C87   C140  A    
Cu19  Cu31  S    
C28   C195  A    
H14   O151  S    
C300  O283  D    
C265  O211  D    
C206  C313  S    
Cu39  O18   S    
C329  O337  A    
C218  O119  D    
C39   C193  A    
C53   C203  A    
C54   C192  A    
C260  O200  D    
C181  C287  S    
Cu21  O351  S    
Cu47  O78   S    
C233  O149  S    
C307  O296  D    
C32   C199  A    
Cu20  O346  S    
C346  O47   A    
C86   C150  A    
C210  C317  S    
C327  O375  A    
C79   C84   S    
C57   O84   A    
Cu24  O335  S    
C372  O319  A    
C360  O290  A    
C98   C147  A    
Cu34  O57   S    
H58   O240  S    
C322  O27   A    
C374  O52   A    
C168  O8    A    
C64   C290  S    
C97   C156  A    
C61   C325  S    
H41   O206  S    
C42   C149  A    
Cu27  O370  S    
C327  O28   A    
C345  O45   A    
C65   C334  S    
C78   C157  S    
C241  O163  D    
Cu14  O301  S    
H20   O164  S    
Cu38  O17   S    
C303  O287  D    
C221  O126  D    
C240  O161  D    
C83   C184  A    
C270  O221  S    
C103  C133  A    
C253  O188  S    
Cu9   O82   S    
C57   O54   A    
C32   C327  S    
Cu30  O358  S    
C315  O313  S    
C258  O196  D    
C59   C165  A    
C247  O174  D    
C349  O331  A    
C74   C185  A    
C45   C196  A    
C99   C145  A    
C302  O285  D    
C70   C198  A    
C142  C249  S    
Cu11  O65   S    
Cu13  Cu45  S    
H18   O160  S    
C117  C222  S    
C261  O203  D    
C313  O307  D    
Cu6   O135  S    
H27   O177  S    
Cu9   O257  S    
C47   C350  S    
C235  O357  A    
C29   C136  A    
C165  C272  S    
Cu3   O100  S    
C31   C353  S    
C192  C298  S    
C27   C344  S    
C243  O169  S    
C166  C273  S    
C231  O144  S    
C127  C233  S    
C360  O35   A    
H60   O244  S    
C79   O93   A    
C65   C172  A    
C241  O164  S    
C281  O243  D    
C336  O379  A    
H40   O204  S    
C254  O189  D    
Cu20  O360  S    
C76   C190  S    
H2    O127  S    
C183  C289  S    
C258  O197  S    
C46   C93   S    
C48   C301  S    
H67   O120  S    
Cu10  O268  S    
H89   O125  S    
C190  O15   A    
C24   O60   A    
C63   C170  A    
C23   C123  A    
C118  C382  A    
C256  O194  D    
C182  C288  S    
C370  O327  A    
C255  O193  S    
C44   C207  A    
C379  O257  A    
C17   C372  S    
C366  O112  A    
H19   O162  S    
Cu25  O357  S    
Cu2   O90   S    
C34   C188  A    
H23   O110  S    
C267  O216  D    
H75   O275  S    
C249  O178  D    
Cu10  O321  S    
Cu47  Cu48  S    
C286  O254  D    
Cu43  O43   S    
C59   C200  A    
C1    C95   S    
Cu24  O343  S    
Cu37  O37   S    
H77   O280  S    
Cu13  O56   S    
Cu22  O344  S    
C38   C185  A    
Cu12  O374  S    
C26   C132  A    
H92   O308  S    
C271  O222  D    
Cu4   O102  S    
Cu18  O371  S    
H74   O273  S    
C308  O298  D    
C105  C382  A    
C380  C383  S    
C77   C210  A    
Cu9   O76   S    
C111  C218  S    
C164  C271  S    
C107  C384  A    
H80   O284  S    
H11   O147  S    
Cu16  O318  S    
Cu33  O384  S    
C104  C132  A    
C78   C175  A    
C81   C164  A    
C115  C220  S    
C92   C149  A    
C323  O370  A    
Cu19  O331  S    
Cu26  O337  S    
C49   C209  A    
C76   C183  A    
C280  O242  S    
C266  O214  D    
C333  O365  A    
C17   C115  A    
C333  O25   A    
H96   O317  S    
C215  O114  S    
Cu42  O44   S    
C122  C229  S    
C48   C154  A    
C2    O94   A    
Cu19  O376  S    
Cu20  Cu35  S    
Cu36  O4    S    
H25   O173  S    
C252  O186  S    
C125  C231  S    
C378  O146  A    
Cu10  O81   S    
C21   C109  A    
Cu30  O366  S    
C336  O19   A    
C275  O233  S    
C197  C304  S    
C8    C114  A    
C3    C108  A    
C149  C255  S    
C301  O4    A    
C293  O267  D    
C316  O315  S    
Cu12  O98   S    
Cu40  O33   S    
H91   O306  S    
C237  O155  S    
C323  O32   A    
H8    O140  S    
C262  O205  D    
H24   O171  S    
C376  O190  A    
C10   C117  A    
Cu8   Cu9   S    
C18   C126  A    
C152  C259  S    
C63   C279  S    
C371  O224  A    
C123  C230  S    
C310  O304  S    
C33   C198  A    
C161  C267  S    
C68   O55   A    
C354  O344  A    
H55   O236  S    
C106  C383  A    
C6    C376  S    
C95   C136  A    
C227  O134  D    
C3    C379  S    
C275  O232  D    
C54   C161  A    
Cu20  O353  S    
H81   O286  S    
C16   C127  A    
C172  C278  S    
C100  C319  S    
C73   C320  S    
C347  O34   A    
Cu16  O324  S    
C56   C206  A    
C59   C340  S    
C69   C204  A    
C101  O81   A    
Cu44  O91   S    
C228  O138  S    
C30   C137  A    
C60   C342  S    
C47   C197  A    
H50   O225  S    
C63   C207  A    
C217  O118  S    
H28   O180  S    
H82   O288  S    
C276  O234  D    
C75   C182  A    
C381  O325  A    
C40   C147  A    
C318  O361  A    
C211  O105  D    
C375  O301  A    
C119  C226  S    
C5    C373  S    
C219  O122  S    
H64   O253  S    
C243  O167  D    
C162  C269  S    
C93   C173  A    
C207  C314  S    
C377  O321  A    
H34   O114  S    
Cu4   O92   S    
H29   O182  S    
C274  O230  D    
C225  O131  S    
Cu40  O48   S    
C273  O229  S    
H21   O166  S    
C109  C216  S    
C234  O151  S    
Cu31  O382  S    
C363  O64   A    
C85   C101  S    
C193  C299  S    
Cu2   Cu46  S    
C214  O109  D    
C160  C266  S    
C94   C169  A    
C8    C360  S    
C201  O16   A    
H36   O195  S    
C368  O79   A    
C68   C96   S    
C345  O339  A    
C86   C113  S    
C28   C134  A    
H1    O106  S    
C338  O359  A    
C7    C114  A    
C265  O213  S    
C11   C125  A    
C299  O282  S    
C298  O280  S    
H46   O215  S    
C91   C144  A    
Cu15  O86   S    
Cu7   O146  S    
C204  C310  S    
C80   C160  A    
Cu18  Cu32  S    
C131  C238  S    
C242  O165  D    
C19   C128  A    
C1    O61   A    
C167  C274  S    
C93   C148  A    
C12   C369  S    
C227  O136  S    
C297  O276  D    
C15   C107  A    
C82   C135  S    
C106  C213  S    
C110  C217  S    
C25   C125  A    
C90   O86   A    
C216  O115  D    
C96   C141  A    
C73   C180  A    
C377  O201  A    
C157  O100  A    
C13   O59   A    
C11   C118  A    
C317  O317  S    
C343  O48   A    
C22   C110  A    
C349  O41   A    
C18   C371  S    
C212  O368  A    
C365  O320  A    
C223  O75   A    
C44   C224  S    
C175  C282  S    
H37   O197  S    
C295  O272  D    
C49   C312  S    
C179  O376  A    
C209  C316  S    
Cu22  O368  S    
C22   C358  S    
Cu32  O42   S    
C263  O207  D    
H31   O186  S    
C285  O253  S    
C35   C92   S    
C230  O142  S    
Cu8   O96   S    
Cu5   O124  S    
C312  O5    A    
C292  O266  S    
C252  O185  D    
C178  C285  S    
C288  O259  D    
C380  O326  A    
C359  O124  A    
Cu8   O190  S    
H16   O155  S    
Cu37  O12   S    
C35   O104  A    
C283  O249  S    
Cu6   O69   S    
C62   C195  A    
C319  O74   A    
C251  O183  D    
C311  O305  D    
C279  O6    A    
C356  O374  A    
C102  C223  S    
C77   C201  S    
C69   C246  S    
C350  O329  A    
C317  O316  D    
C373  O312  A    
C239  O160  S    
C253  O187  D    
Cu36  O50   S    
C325  O30   A    
C229  O139  D    
C129  C236  S    
C277  O237  D    
C27   C133  A    
C272  O227  S    
C369  O330  A    
Cu37  O51   S    
Cu44  O330  S    
Cu25  O347  S    
C10   C123  A    
C116  C384  A    
C18   C116  A    
C287  O256  D    
C285  O252  D    
C71   C177  A    
C54   C354  S    
Cu3   O101  S    
Cu18  O329  S    
C60   C166  A    
Cu4   O235  S    
C95   C167  A    
C269  O218  D    
C52   C204  A    
C340  O335  A    
H53   O231  S    
C256  O195  S    
C2    C89   S    
C126  C232  S    
Cu27  O364  S    
C301  O381  A    
Cu4   O113  S    
Cu22  O380  S    
H7    O138  S    
Cu22  O334  S    
C309  O302  S    
Cu27  Cu41  S    
C177  C284  S    
C37   C186  A    
C321  O26   A    
C255  O192  D    
C305  O292  D    
C45   C349  S    
C248  O177  S    
C13   O71   A    
C143  C250  S    
C112  O62   A    
C314  O309  D    
H10   O144  S    
C236  O153  S    
C31   C138  A    
C43   C212  S    
C184  C291  S    
C351  O39   A    
Cu28  O379  S    
H30   O184  S    
C368  O363  A    
C194  C300  S    
Cu39  O26   S    
Cu29  O365  S    
C91   C181  A    
C51   C346  S    
Cu21  O361  S    
H72   O269  S    
C244  O171  S    
C214  O110  S    
H93   O310  S    
C9    C361  S    
H26   O175  S    
Cu7   O201  S    
C46   O58   A    
C98   C161  A    
C138  C244  S    
Cu27  O349  S    
C296  O275  S    
Cu34  O319  S    
C232  O145  D    
C62   C169  A    
C34   C347  S    
C53   C160  A    
C37   C143  A    
Cu10  O77   S    
C363  O78   A    
C38   C144  A    
Cu13  O66   S    
Cu41  O39   S    
C298  O278  D    
C224  O367  A    
Cu26  O340  S    
C26   C343  S    
Cu42  O29   S    
C41   C191  A    
C300  O284  S    
Cu14  O73   S    
C71   C199  A    
C72   C205  A    
Cu5   O224  S    
Cu46  O352  S    
Cu1   O94   S    
H54   O233  S    
C218  O120  S    
C213  O107  D    
C51   C158  A    
C85   C170  A    
C320  O360  A    
C136  C242  S    
C358  O135  A    
C36   C187  A    
C318  O384  A    
C89   C182  A    
Cu30  O373  S    
C157  O73   A    
C48   C210  A    
C233  O148  D    
C90   O92   A    
C375  O246  A    
C335  O22   A    
C219  O121  D    
Cu29  Cu43  S    
C287  O258  S    
C42   C189  A    
C36   C348  S    
C71   C331  S    
C52   C257  S    
C326  O31   A    
Cu45  O104  S    
C316  O314  D    
Cu29  O375  S    
C358  O57   A    
C46   O103  A    
C342  O51   A    
C289  O262  S    
C180  C286  S    
Cu25  O342  S    
H15   O153  S    
C291  O264  S    
C364  O168  A    
C147  C253  S    
C78   C159  A    
C367  O90   A    
C12   C122  A    
H66   O258  S    
C240  O162  S    
C5    C110  A    
H88   O302  S    
Cu19  O372  S    
C16   C356  S    
Cu19  O338  S    
C282  O247  S    
C67   C174  A    
C352  O80   A    
C14   C370  S    
C153  C260  S    
C348  O354  A    
C66   C335  S    
Cu38  O6    S    
C20   C119  A    
C357  O323  A    
Cu8   O88   S    
C43   C150  A    
Cu11  O58   S    
Cu6   O212  S    
C76   C209  A    
C9    C111  A    
C96   C158  A    
C290  O7    A    
C302  O286  S    
C12   C131  A    
C176  C283  S    
H45   O116  S    
C146  O102  A    
H95   O315  S    
Cu33  O22   S    
C169  C275  S    
C114  C219  S    
Cu20  O332  S    
C170  C276  S    
C278  O240  S    
Cu31  O41   S    
C271  O225  S    
Cu43  O25   S    
C91   C374  S    
Cu46  O80   S    
C246  O11   A    
Cu5   O55   S    
C343  O350  A    
Cu35  O3    S    
C224  O14   A    
C64   C208  A    
C56   C163  A    
C231  O143  D    
C306  O294  D    
C121  C228  S    
Cu46  O24   S    
Cu3   O93   S    
C290  O347  A    
C67   C235  S    
C339  O358  A    
Cu42  O34   S    
C216  O116  S    
C325  O333  A    
Cu30  O355  S    
C38   C337  S    
C102  C138  A    
Cu3   Cu14  S    
C135  O77   A    
C84   C155  A    
C341  O89   A    
C191  C297  S    
C295  O273  S    
C82   C163  A    
Cu28  Cu40  S    
C330  O65   A    
Cu26  O348  S    
C29   C194  A    
C369  O328  A    
C64   C171  A    
C5    C121  A    
C332  O366  A    
C77   C184  A    
C294  O270  D    
C100  C166  A    
Cu35  O21   S    
Cu47  O13   S    
C322  O340  A    
C13   C98   S    
C186  C293  S    
Cu8   O157  S    
C179  O9    A    
Cu1   O99   S    
C155  C262  S    
H62   O249  S    
H90   O304  S    
C286  O255  S    
C50   C156  A    
Cu17  O323  S    
C15   C126  A    
C374  O95   A    
Cu23  O83   S    
Cu43  O36   S    
C66   C173  A    
H42   O208  S    
C144  C251  S    
C307  O297  S    
Cu48  O79   S    
C132  C239  S    
C103  C352  S    
C94   C112  S    
C225  O130  D    
C33   C140  A    
C189  C296  S    
C52   C159  A    
Cu34  O84   S    
C366  O318  A    
Cu2   O168  S    
Cu25  Cu39  S    
C371  O223  A    
C263  O208  S    
C220  O123  D    
Cu24  O381  S    
Cu45  O341  S    
C321  O342  A    
C331  O18   A    
C50   C187  A    
C6    C120  A    
C266  O215  S    
C205  C311  S    
C196  C303  S    
C356  O324  A    
Cu32  O45   S    
C51   C188  A    
Cu23  O75   S    
Cu17  O320  S    
C118  C225  S    
C128  C234  S    
C213  O108  S    
Cu5   O67   S    
Cu21  O345  S    
Cu35  O15   S    
C339  O44   A    
C55   C162  A    
C44   C151  A    
Cu13  O327  S    
C81   C124  S    
C86   C171  A    
C235  O10   A    
C381  O113  A    
C202  C308  S    
C61   C167  A    
C41   C323  S    
H73   O271  S    
Cu14  O326  S    
H68   O260  S    
H3    O129  S    
Cu30  Cu42  S    
Cu32  O383  S    
C23   C106  A    
C378  O268  A    
Cu48  O179  S    
C104  C363  S    
H44   O213  S    
C262  O206  S    
C272  O226  D    
C359  O68   A    
C267  O217  S    
H94   O313  S    
C88   C139  A    
C353  O362  A    
Cu16  O52   S    
H61   O247  S    
C156  C263  S    
C249  O180  S    
C150  C256  S    
C303  O288  S    
C221  O127  S    
C338  O43   A    
C264  O209  D    
C40   C339  S    
C66   C191  A    
C56   C168  S    
C222  O129  S    
C270  O220  D    
C373  O235  A    
C364  O24   A    
C282  O245  D    
Cu24  Cu36  S    
C259  O198  D    
Cu17  O53   S    
Cu48  O59   S    
Cu38  O27   S    
C58   C179  S    
C284  O251  S    
Cu21  O333  S    
C353  O40   A    
C55   C193  A    
H48   O219  S    
Cu45  O89   S    
C35   O56   A    
C102  C165  A    
C238  O158  S    
H51   O227  S    
C104  C153  A    
Cu26  O356  S    
C276  O236  S    
C261  O204  S    
C217  O117  D    
C313  O308  S    
C293  O269  S    
Cu31  O47   S    
Cu23  O223  S    
Cu42  O23   S    
C19   C367  S    
C72   C318  S    
C83   C90   S    
C352  O63   A    
Cu41  O49   S    
Cu44  O46   S    
C330  O91   A    
Cu7   O87   S    
C281  O244  S    
C244  O170  D    
C274  O231  S    
C33   C328  S    
C84   C183  A    
C326  O332  A    
C273  O228  D    
Cu37  O5    S    
C229  O140  S    
C355  O38   A    
Cu47  O71   S    
C292  O265  D    
Cu18  O377  S    
C247  O175  S    
Cu29  O354  S    
Cu34  O74   S    
C296  O274  D    
H69   O262  S    
H52   O229  S    
H78   O122  S    
C159  C265  S    
C53   C268  S    
C1    O99   A    
H13   O149  S    
Cu1   Cu17  S    
C268  O383  A    
C334  O346  A    
Cu3   O246  S    
C223  O67   A    
Cu5   Cu23  S    
C173  C280  S    
C215  O111  D    
C299  O281  D    
C211  O106  S    
C379  O157  A    
C328  O29   A    
C220  O125  S    
C23   C362  S    
C61   C194  A    
C107  C214  S    
C245  O173  S    
C7    C377  S    
C332  O23   A    
C361  O46   A    
C94   C134  A    
C208  C315  S    
C195  C302  S    
C378  C384  S    
C37   C336  S    
Cu28  O362  S    
C8    C129  A    
C188  C295  S    
C16   C108  A    
Cu39  O10   S    
C304  O291  S    
H65   O255  S    
C237  O154  D    
C335  O345  A    
C88   C341  S    
H39   O202  S    
C82   C180  A    
C21   C131  A    
H83   O291  S    
H38   O199  S    
Cu26  Cu38  S    
C329  O17   A    
C200  C307  S    
C250  O182  S    
C280  O241  D    
C346  O338  A    
C113  O96   A    
C365  O1    A    
Cu13  O290  S    
C151  C258  S    
C245  O172  D    
C139  C245  S    
