data_mof_unit_424.cif
_audit_creation_date              2012-12-10T18:45:38-0500
_audit_creation_method            fapswitch 2.2
_symmetry_space_group_name_H-M    P1
_symmetry_Int_Tables_number       1
_space_group_crystal_system       triclinic
_cell_length_a                    18.086404
_cell_length_b                    18.086207
_cell_length_c                    43.121463
_cell_angle_alpha                 89.999913
_cell_angle_beta                  89.999837
_cell_angle_gamma                 90.00019
_cell_volume                      14105.653507

loop_
_atom_site_label
_atom_site_type_symbol
_atom_type_description
_atom_site_fract_x
_atom_site_fract_y
_atom_site_fract_z
_atom_type_partial_charge
C1    C     C_R   0.500000 0.000001 0.334290 0.526784
C2    C     C_R   0.500001 0.000000 0.868750 0.042722
C3    C     C_3   0.730473 0.302088 0.229858 0.252560
C4    C     C_3   0.302010 0.269298 0.770265 0.252137
C5    C     C_3   0.697948 0.730505 0.229836 0.252562
C6    C     C_3   0.730683 0.302034 0.770253 0.252134
C7    C     C_3   0.269528 0.697912 0.229859 0.252560
C8    C     C_R   0.515947 0.065582 0.114629 0.219552
C9    C     C_R   0.508942 0.933086 0.885463 0.224404
C10   C     C_R   0.934426 0.515968 0.114630 0.219542
C11   C     C_R   0.066933 0.508800 0.885464 0.224385
C12   C     C_R   0.484052 0.934419 0.114629 0.219552
C13   C     C_R   0.000000 0.500000 0.131316 0.038501
C14   C     C_R   0.491062 0.066914 0.885463 0.224404
C15   C     C_R   0.065575 0.484034 0.114630 0.219543
C16   C     C_R   0.933066 0.491205 0.885464 0.224384
C17   C     C_R   0.016105 0.565542 0.614632 0.219588
C18   C     C_R   0.008658 0.433042 0.385465 0.224384
C19   C     C_R   0.434464 0.016106 0.614634 0.219575
C20   C     C_R   0.566994 0.008321 0.385466 0.224331
C21   C     C_R   0.983888 0.434458 0.614633 0.219589
C22   C     C_R   0.991342 0.566959 0.385465 0.224387
C23   C     C_R   0.565536 0.983895 0.614634 0.219576
C24   C     C_R   1.000000 0.500002 0.868751 0.042685
C25   C     C_R   0.433005 0.991686 0.385466 0.224332
C26   C     C_R   0.514058 0.065287 0.082190 -0.122593
C27   C     C_R   0.507057 0.933611 0.917906 -0.122731
C28   C     C_R   0.934719 0.514077 0.082192 -0.122591
C29   C     C_R   0.066404 0.506915 0.917907 -0.122739
C30   C     C_R   0.485941 0.934713 0.082190 -0.122591
C31   C     C_R   0.492946 0.066389 0.917906 -0.122735
C32   C     C_R   0.065282 0.485926 0.082191 -0.122595
C33   C     C_R   0.933595 0.493093 0.917907 -0.122737
C34   C     C_R   0.014216 0.565253 0.582193 -0.122573
C35   C     C_R   0.999997 0.500000 0.631318 0.038499
C36   C     C_R   0.006767 0.433575 0.417909 -0.122792
C37   C     C_R   0.434754 0.014221 0.582195 -0.122604
C38   C     C_R   0.566451 0.006427 0.417910 -0.122862
C39   C     C_R   0.985774 0.434747 0.582194 -0.122579
C40   C     C_R   0.993232 0.566426 0.417908 -0.122798
C41   C     C_R   0.565246 0.985781 0.582195 -0.122606
C42   C     C_R   0.433549 0.993579 0.417910 -0.122872
C43   C     C_R   0.500000 1.000000 0.065749 -0.062182
C44   C     C_R   0.500001 1.000000 0.934345 -0.062087
C45   C     C_R   0.000000 0.500002 0.065750 -0.062191
C46   C     C_R   0.000000 0.500000 0.368752 0.042716
C47   C     C_R   0.000000 0.500004 0.934346 -0.062089
C48   C     C_R   0.999995 0.500000 0.565752 -0.062202
C49   C     C_R   0.999999 0.500000 0.434347 -0.062033
C50   C     C_R   0.500000 0.000001 0.565753 -0.062213
C51   C     C_R   0.500000 0.000002 0.434349 -0.062007
C52   C     C_3   0.210365 0.211696 0.171914 -0.128848
C53   C     C_3   0.789953 0.789359 0.827979 -0.114572
C54   C     C_3   0.788181 0.210520 0.171888 -0.128859
C55   C     C_3   0.210785 0.789774 0.828007 -0.114573
C56   C     C_3   0.789628 0.788300 0.171913 -0.128857
C57   C     C_R   0.500000 0.000000 0.631319 0.038565
C58   C     C_3   0.210071 0.210664 0.827983 -0.114573
C59   C     C_3   0.211822 0.789479 0.171888 -0.128861
C60   C     C_3   0.789249 0.210182 0.828002 -0.114569
C61   C     C_3   0.710059 0.711416 0.671968 -0.128906
C62   C     C_3   0.289562 0.289030 0.328044 -0.114388
C63   C     C_3   0.288469 0.710200 0.671945 -0.128928
C64   C     C_3   0.711142 0.289341 0.328079 -0.114396
C65   C     C_3   0.289915 0.288559 0.671964 -0.128913
C66   C     C_3   0.710444 0.710975 0.328045 -0.114395
C67   C     C_3   0.711504 0.289837 0.671949 -0.128928
C68   C     C_R   0.500000 0.000002 0.368753 0.042806
C69   C     C_3   0.288856 0.710659 0.328079 -0.114396
C70   C     C_3   0.148738 0.143535 0.303243 -0.104785
C71   C     C_3   0.851297 0.856962 0.697024 -0.097610
C72   C     C_3   0.856565 0.148623 0.303172 -0.104895
C73   C     C_3   0.142962 0.851375 0.697079 -0.097620
C74   C     C_3   0.851262 0.856467 0.303242 -0.104784
C75   C     C_3   0.148688 0.143022 0.697035 -0.097612
C76   C     C_3   0.143433 0.851376 0.303171 -0.104898
C77   C     C_3   0.857017 0.148647 0.697062 -0.097611
C78   C     C_3   0.648948 0.643744 0.803383 -0.104571
C79   C     C_R   0.999997 0.500000 0.468574 0.350526
C80   C     C_3   0.351479 0.357151 0.197152 -0.097666
C81   C     C_3   0.356343 0.648851 0.803321 -0.104624
C82   C     C_3   0.642765 0.351565 0.197212 -0.097672
C83   C     C_3   0.351067 0.356273 0.803371 -0.104567
C84   C     C_3   0.648521 0.642847 0.197153 -0.097659
C85   C     C_3   0.643677 0.351126 0.803338 -0.104618
C86   C     C_3   0.357236 0.648435 0.197213 -0.097672
C87   C     C_3   0.606921 0.142406 0.131077 -0.080380
C88   C     C_3   0.590422 0.845598 0.869551 -0.092544
C89   C     C_3   0.857646 0.606963 0.131085 -0.080388
C90   C     C_R   0.999995 0.500000 0.531527 0.350106
C91   C     C_3   0.154612 0.590087 0.869556 -0.092470
C92   C     C_3   0.393079 0.857595 0.131078 -0.080380
C93   C     C_3   0.409588 0.154412 0.869555 -0.092551
C94   C     C_3   0.142364 0.393043 0.131080 -0.080396
C95   C     C_3   0.845388 0.409915 0.869557 -0.092460
C96   C     C_3   0.107277 0.642097 0.631100 -0.080475
C97   C     C_3   0.089733 0.345076 0.369618 -0.092472
C98   C     C_3   0.357886 0.107260 0.631092 -0.080490
C99   C     C_3   0.655470 0.088886 0.369674 -0.092356
C100  C     C_3   0.892716 0.357895 0.631098 -0.080477
C101  C     C_R   0.500000 0.000002 0.468575 0.350562
C102  C     C_3   0.910271 0.654930 0.369620 -0.092476
C103  C     C_3   0.642113 0.892739 0.631090 -0.080494
C104  C     C_3   0.344504 0.911140 0.369682 -0.092360
C105  C     C_R   0.500000 1.000000 0.665736 0.519890
C106  C     C_R   0.500000 0.000001 0.531528 0.350152
C107  C     C_R   0.500001 1.000000 0.968571 0.350513
C108  C     C_R   0.500000 1.000000 0.031524 0.350093
C109  C     C_R   0.000000 0.500004 0.968572 0.350518
C110  C     C_R   0.000000 0.500003 0.031525 0.350096
C111  C     C_R   0.641591 0.141526 0.250049 0.539386
C112  C     C_R   0.358375 0.858475 0.749966 0.542623
C113  C     C_R   0.858471 0.641589 0.250051 0.539388
C114  C     C_R   0.141526 0.358376 0.749965 0.542649
C115  C     C_R   0.358409 0.858474 0.250049 0.539389
C116  C     C_R   0.000000 0.500000 0.334290 0.526617
C117  C     C_R   0.641624 0.141525 0.749966 0.542629
C118  C     C_R   0.141529 0.358412 0.250051 0.539390
C119  C     C_R   0.858473 0.641623 0.749965 0.542654
C120  C     C_R   0.141587 0.641531 0.750051 0.539386
C121  C     C_R   0.858372 0.358477 0.249968 0.542612
C122  C     C_R   0.358467 0.141585 0.750053 0.539403
C123  C     C_R   0.641524 0.858374 0.249967 0.542656
C124  C     C_R   0.858414 0.358469 0.750052 0.539394
C125  C     C_R   0.141628 0.641523 0.249968 0.542611
C126  C     C_R   0.641533 0.858415 0.750053 0.539406
C127  C     C_R   0.999999 0.500000 0.665735 0.519864
C128  C     C_R   0.358476 0.141626 0.249967 0.542656
C129  C     C_3   0.218960 0.183812 0.241546 -0.190600
C130  C     C_3   0.781029 0.816331 0.758448 -0.195262
C131  C     C_3   0.816176 0.218976 0.241514 -0.190596
C132  C     C_3   0.183685 0.781009 0.758475 -0.195254
C133  C     C_3   0.781039 0.816187 0.241544 -0.190597
C134  C     C_3   0.218975 0.183672 0.758453 -0.195264
C135  C     C_3   0.183824 0.781023 0.241514 -0.190596
C136  C     C_3   0.816319 0.218985 0.758468 -0.195251
C137  C     C_3   0.718926 0.683787 0.741610 -0.190573
C138  C     C_R   1.000000 0.500000 0.834290 0.526483
C139  C     C_3   0.280988 0.316300 0.258510 -0.195256
C140  C     C_3   0.316202 0.718941 0.741582 -0.190571
C141  C     C_3   0.683717 0.280966 0.258542 -0.195230
C142  C     C_3   0.281071 0.316211 0.741604 -0.190576
C143  C     C_3   0.719013 0.683701 0.258512 -0.195253
C144  C     C_3   0.683794 0.281064 0.741589 -0.190568
C145  C     C_3   0.316282 0.719034 0.258542 -0.195230
C146  C     C_3   0.220734 0.255306 0.221839 0.243498
C147  C     C_3   0.779346 0.744911 0.778200 0.241465
C148  C     C_3   0.744649 0.220786 0.221830 0.243505
C149  C     C_R   0.000000 0.500000 0.165735 0.519862
C150  C     C_3   0.255134 0.779293 0.778208 0.241475
C151  C     C_3   0.779264 0.744692 0.221839 0.243498
C152  C     C_3   0.220663 0.255098 0.778201 0.241467
C153  C     C_3   0.255352 0.779214 0.221830 0.243505
C154  C     C_3   0.744877 0.220692 0.778206 0.241471
C155  C     C_3   0.720628 0.755209 0.721857 0.243485
C156  C     C_3   0.279232 0.244810 0.278217 0.241488
C157  C     C_3   0.244750 0.720676 0.721849 0.243498
C158  C     C_3   0.755240 0.279172 0.278226 0.241505
C159  C     C_3   0.279362 0.244782 0.721856 0.243488
C160  C     C_R   0.500000 1.000000 0.834289 0.526476
C161  C     C_3   0.720770 0.755193 0.278218 0.241487
C162  C     C_3   0.755239 0.279338 0.721850 0.243490
C163  C     C_3   0.244759 0.720828 0.278226 0.241505
C164  C     C_3   0.198680 0.301420 0.250329 0.022297
C165  C     C_3   0.801312 0.698664 0.749720 0.020584
C166  C     C_3   0.698585 0.198674 0.250326 0.022307
C167  C     C_3   0.301335 0.801312 0.749722 0.020589
C168  C     C_3   0.801320 0.698580 0.250329 0.022300
C169  C     C_3   0.198688 0.301336 0.749720 0.020587
C170  C     C_3   0.301415 0.801326 0.250326 0.022308
C171  C     C_R   0.500000 0.000000 0.165734 0.519878
C172  C     C_3   0.698665 0.198688 0.749722 0.020583
C173  C     C_3   0.698688 0.801427 0.750332 0.022293
C174  C     C_3   0.301314 0.198667 0.249722 0.020578
C175  C     C_3   0.198577 0.698683 0.750330 0.022301
C176  C     C_3   0.801332 0.301314 0.249725 0.020584
C177  C     C_3   0.301312 0.198573 0.750332 0.022295
C178  C     C_3   0.698686 0.801333 0.249723 0.020581
C179  C     C_3   0.801424 0.301316 0.750331 0.022295
C180  C     C_3   0.198668 0.698686 0.249725 0.020584
C181  C     C_3   0.197914 0.230629 0.270220 0.252125
C182  C     C_R   0.500000 1.000000 0.131316 0.038492
C183  C     C_3   0.801977 0.769418 0.729788 0.252558
C184  C     C_3   0.769410 0.197869 0.270196 0.252127
C185  C     C_3   0.230551 0.802010 0.729809 0.252557
C186  C     C_3   0.802088 0.769373 0.270219 0.252126
C187  C     C_3   0.198017 0.230575 0.729792 0.252559
C188  C     C_3   0.230589 0.802131 0.270196 0.252128
C189  C     C_3   0.769442 0.197998 0.729803 0.252553
C190  C     C_3   0.697996 0.730709 0.770269 0.252138
C191  C     C_3   0.302051 0.269493 0.229835 0.252562
C192  C     C_3   0.269326 0.697957 0.770247 0.252133
H1    H     H_    0.195689 0.129419 0.234714 0.104308
H2    H     H_    0.304196 0.370713 0.265350 0.104181
H3    H     H_    0.102009 0.862837 0.284750 0.121183
H4    H     H_    0.134967 0.892688 0.321848 0.128965
H5    H     H_    0.897846 0.135665 0.715538 0.118426
H6    H     H_    0.867456 0.204682 0.687373 0.160536
H7    H     H_    0.865379 0.108222 0.678040 0.136052
H8    H     H_    0.704640 0.634354 0.813594 0.178096
H9    H     H_    0.637374 0.602221 0.785014 0.121109
H10   H     H_    0.607749 0.635385 0.822111 0.129372
H11   H     H_    0.364402 0.397940 0.215650 0.118441
H12   H     H_    0.295471 0.367605 0.187439 0.160545
H13   H     H_    0.370607 0.695654 0.734779 0.104324
H14   H     H_    0.391954 0.365562 0.178154 0.135965
H15   H     H_    0.365741 0.704524 0.813549 0.178082
H16   H     H_    0.397839 0.637318 0.784937 0.121133
H17   H     H_    0.364733 0.607614 0.822032 0.129307
H18   H     H_    0.601989 0.364395 0.215726 0.118437
H19   H     H_    0.632333 0.295590 0.187464 0.160576
H20   H     H_    0.634310 0.392108 0.178243 0.135922
H21   H     H_    0.295377 0.365664 0.813584 0.178100
H22   H     H_    0.362635 0.397791 0.784999 0.121109
H23   H     H_    0.392272 0.364637 0.822096 0.129370
H24   H     H_    0.629316 0.304160 0.265407 0.104182
H25   H     H_    0.635621 0.602054 0.215653 0.118442
H26   H     H_    0.704522 0.632405 0.187432 0.160546
H27   H     H_    0.608031 0.634431 0.178161 0.135962
H28   H     H_    0.634277 0.295444 0.813558 0.178083
H29   H     H_    0.602175 0.362679 0.784957 0.121135
H30   H     H_    0.635297 0.392348 0.822055 0.129304
H31   H     H_    0.398012 0.635607 0.215727 0.118438
H32   H     H_    0.367667 0.704410 0.187463 0.160577
H33   H     H_    0.365692 0.607891 0.178244 0.135922
H34   H     H_    0.634962 0.096517 0.143663 0.134436
H35   H     H_    0.304369 0.370624 0.734819 0.104343
H36   H     H_    0.618052 0.194181 0.144045 0.167970
H37   H     H_    0.630863 0.148955 0.107462 0.096884
H38   H     H_    0.624672 0.888234 0.857674 0.107490
H39   H     H_    0.595722 0.793519 0.856138 0.167137
H40   H     H_    0.612036 0.834922 0.893289 0.100791
H41   H     H_    0.903522 0.634964 0.143689 0.134479
H42   H     H_    0.805858 0.618115 0.144039 0.167894
H43   H     H_    0.851158 0.630928 0.107474 0.096897
H44   H     H_    0.112060 0.624436 0.857673 0.107568
H45   H     H_    0.206713 0.595267 0.856149 0.167066
H46   H     H_    0.695806 0.629288 0.265353 0.104180
H47   H     H_    0.165320 0.611683 0.893295 0.100749
H48   H     H_    0.365039 0.903484 0.143665 0.134438
H49   H     H_    0.381948 0.805820 0.144046 0.167971
H50   H     H_    0.369135 0.851047 0.107463 0.096884
H51   H     H_    0.375328 0.111778 0.857682 0.107484
H52   H     H_    0.404289 0.206489 0.856140 0.167123
H53   H     H_    0.387985 0.165096 0.893293 0.100799
H54   H     H_    0.096488 0.365030 0.143679 0.134472
H55   H     H_    0.194149 0.381892 0.144036 0.167889
H56   H     H_    0.148864 0.369089 0.107468 0.096902
H57   H     H_    0.629386 0.304356 0.734792 0.104333
H58   H     H_    0.887943 0.375565 0.857676 0.107567
H59   H     H_    0.793288 0.404731 0.856150 0.167081
H60   H     H_    0.834677 0.388321 0.893297 0.100751
H61   H     H_    0.135149 0.596160 0.643716 0.134373
H62   H     H_    0.118543 0.693869 0.644048 0.168033
H63   H     H_    0.131283 0.648506 0.607492 0.096887
H64   H     H_    0.124328 0.387589 0.357827 0.107437
H65   H     H_    0.094813 0.293041 0.356156 0.167010
H66   H     H_    0.111127 0.334122 0.393372 0.100820
H67   H     H_    0.403819 0.135159 0.643704 0.134378
H68   H     H_    0.370683 0.695840 0.265408 0.104183
H69   H     H_    0.306114 0.118511 0.644040 0.167962
H70   H     H_    0.351458 0.131253 0.607479 0.096906
H71   H     H_    0.613140 0.123830 0.357957 0.107482
H72   H     H_    0.707463 0.093704 0.356169 0.166993
H73   H     H_    0.666681 0.110058 0.393439 0.100877
H74   H     H_    0.864834 0.403839 0.643707 0.134362
H75   H     H_    0.881451 0.306129 0.644051 0.168012
H76   H     H_    0.868717 0.351466 0.607489 0.096888
H77   H     H_    0.875667 0.612416 0.357834 0.107427
H78   H     H_    0.905191 0.706960 0.356154 0.167010
H79   H     H_    0.524742 0.116495 0.069961 0.159017
H80   H     H_    0.888887 0.665897 0.393375 0.100826
H81   H     H_    0.596179 0.864838 0.643701 0.134374
H82   H     H_    0.693884 0.881485 0.644039 0.167947
H83   H     H_    0.648541 0.868750 0.607477 0.096912
H84   H     H_    0.386827 0.876170 0.357975 0.107470
H85   H     H_    0.292519 0.906327 0.356173 0.166993
H86   H     H_    0.333272 0.889994 0.393450 0.100892
H87   H     H_    0.512100 0.881563 0.930147 0.158268
H88   H     H_    0.883515 0.524772 0.069962 0.159032
H89   H     H_    0.804266 0.870767 0.765237 0.104161
H90   H     H_    0.118464 0.511838 0.930147 0.158274
H91   H     H_    0.475257 0.883505 0.069961 0.159018
H92   H     H_    0.487905 0.118436 0.930147 0.158264
H93   H     H_    0.116486 0.475232 0.069962 0.159027
H94   H     H_    0.881535 0.488169 0.930148 0.158274
H95   H     H_    0.025028 0.616436 0.569964 0.159040
H96   H     H_    0.011570 0.381501 0.430151 0.158181
H97   H     H_    0.383574 0.025024 0.569967 0.159052
H98   H     H_    0.618543 0.010947 0.430152 0.158127
H99   H     H_    0.974962 0.383565 0.569965 0.159036
H100  H     H_    0.870558 0.195722 0.234658 0.104283
H101  H     H_    0.988428 0.618500 0.430150 0.158176
H102  H     H_    0.616425 0.974978 0.569967 0.159051
H103  H     H_    0.381456 0.989061 0.430152 0.158116
H104  H     H_    0.188665 0.156641 0.178863 0.117553
H105  H     H_    0.271610 0.210006 0.169726 0.168902
H106  H     H_    0.187577 0.224528 0.148649 0.121346
H107  H     H_    0.728698 0.792349 0.829791 0.138240
H108  H     H_    0.812977 0.843911 0.821086 0.109882
H109  H     H_    0.811649 0.776239 0.851398 0.141751
H110  H     H_    0.843246 0.188803 0.178813 0.117559
H111  H     H_    0.129260 0.804233 0.765287 0.104150
H112  H     H_    0.789868 0.271771 0.169723 0.168917
H113  H     H_    0.775311 0.187781 0.148618 0.121315
H114  H     H_    0.207865 0.728513 0.829810 0.138339
H115  H     H_    0.156197 0.812746 0.821134 0.109865
H116  H     H_    0.223921 0.811465 0.851425 0.141739
H117  H     H_    0.811329 0.843354 0.178861 0.117556
H118  H     H_    0.728382 0.789990 0.169727 0.168901
H119  H     H_    0.812414 0.775466 0.148648 0.121345
H120  H     H_    0.271326 0.207671 0.829790 0.138240
H121  H     H_    0.187041 0.156112 0.821095 0.109881
H122  H     H_    0.804308 0.870580 0.234712 0.104307
H123  H     H_    0.188386 0.223793 0.851402 0.141754
H124  H     H_    0.156757 0.811197 0.178813 0.117559
H125  H     H_    0.210134 0.728229 0.169723 0.168916
H126  H     H_    0.224692 0.812217 0.148618 0.121315
H127  H     H_    0.792176 0.271441 0.829810 0.138336
H128  H     H_    0.843832 0.187207 0.821123 0.109867
H129  H     H_    0.776122 0.188481 0.851420 0.141730
H130  H     H_    0.688370 0.656393 0.678966 0.117547
H131  H     H_    0.771295 0.709702 0.669741 0.168825
H132  H     H_    0.687187 0.724170 0.648710 0.121344
H133  H     H_    0.195740 0.129238 0.765247 0.104156
H134  H     H_    0.228296 0.291857 0.329842 0.138420
H135  H     H_    0.312461 0.343668 0.321197 0.109829
H136  H     H_    0.311255 0.275872 0.351459 0.141871
H137  H     H_    0.343505 0.688510 0.678923 0.117558
H138  H     H_    0.290168 0.771441 0.669736 0.168858
H139  H     H_    0.275687 0.687364 0.648683 0.121301
H140  H     H_    0.708427 0.228068 0.329874 0.138665
H141  H     H_    0.656449 0.312147 0.321254 0.109823
H142  H     H_    0.724309 0.311046 0.351492 0.141821
H143  H     H_    0.311603 0.343585 0.678957 0.117548
H144  H     H_    0.129442 0.804277 0.234658 0.104282
H145  H     H_    0.228678 0.290271 0.669740 0.168829
H146  H     H_    0.312779 0.275799 0.648705 0.121337
H147  H     H_    0.771710 0.708146 0.329841 0.138415
H148  H     H_    0.687543 0.656337 0.321199 0.109834
H149  H     H_    0.688755 0.724135 0.351460 0.141872
H150  H     H_    0.656468 0.311518 0.678933 0.117560
H151  H     H_    0.709811 0.228596 0.669733 0.168849
H152  H     H_    0.724276 0.312689 0.648689 0.121302
H153  H     H_    0.291572 0.771932 0.329874 0.138674
H154  H     H_    0.343549 0.687851 0.321255 0.109825
H155  H     H_    0.870748 0.195756 0.765274 0.104156
H156  H     H_    0.275688 0.688955 0.351492 0.141820
H157  H     H_    0.204392 0.134112 0.313484 0.178107
H158  H     H_    0.137236 0.102078 0.284840 0.121117
H159  H     H_    0.107468 0.135105 0.321938 0.129130
H160  H     H_    0.864345 0.897796 0.715488 0.118421
H161  H     H_    0.795243 0.867420 0.687360 0.160505
H162  H     H_    0.891673 0.865292 0.677982 0.136082
H163  H     H_    0.866005 0.204256 0.313431 0.178084
H164  H     H_    0.897989 0.137161 0.284751 0.121180
H165  H     H_    0.865030 0.107313 0.321848 0.128972
H166  H     H_    0.695624 0.629371 0.734829 0.104347
H167  H     H_    0.102142 0.864352 0.715558 0.118419
H168  H     H_    0.132516 0.795345 0.687388 0.160552
H169  H     H_    0.134593 0.891804 0.678061 0.136049
H170  H     H_    0.795613 0.865880 0.313490 0.178109
H171  H     H_    0.862745 0.897928 0.284838 0.121121
H172  H     H_    0.892543 0.864902 0.321932 0.129128
H173  H     H_    0.135653 0.102191 0.715503 0.118424
H174  H     H_    0.204739 0.132565 0.687366 0.160515
H175  H     H_    0.108303 0.134685 0.677998 0.136076
H176  H     H_    0.133993 0.795744 0.313431 0.178086
N1    N     N_R   0.496544 0.935532 0.015472 -0.228796
N2    N     N_R   0.003626 0.564461 0.484626 -0.228745
N3    N     N_R   0.564436 0.996026 0.515475 -0.228857
N4    N     N_R   0.435558 0.003883 0.484627 -0.228767
N5    N     N_R   0.003722 0.564456 0.515475 -0.228822
N6    N     N_R   0.996367 0.435539 0.484626 -0.228744
N7    N     N_R   0.435564 0.003977 0.515476 -0.228858
N8    N     N_R   0.564442 0.996120 0.484627 -0.228766
N9    N     N_R   0.503360 0.064473 0.984624 -0.228718
N10   N     N_R   0.064466 0.496481 0.015473 -0.228802
N11   N     N_R   0.935530 0.503429 0.984625 -0.228728
N12   N     N_R   0.503456 0.064468 0.015472 -0.228796
N13   N     N_R   0.496642 0.935527 0.984624 -0.228717
N14   N     N_R   0.935535 0.503525 0.015474 -0.228802
N15   N     N_R   0.064471 0.496578 0.984624 -0.228728
N16   N     N_R   0.996269 0.435545 0.515475 -0.228821
O1    O     O_3   0.500000 0.000000 0.250000 -0.484503
O2    O     O_R   0.438450 0.000020 0.680680 -0.498042
O3    O     O_3   0.365893 0.986117 0.370279 -0.529496
O4    O     O_R   0.000020 0.561550 0.319320 -0.496643
O5    O     O_R   0.999980 0.438450 0.680680 -0.498036
O6    O     O_R   0.938450 0.500020 0.819320 -0.496694
O7    O     O_R   0.061550 0.499980 0.180680 -0.498064
O8    O     O_R   0.499980 0.938450 0.819320 -0.496652
O9    O     O_R   0.500020 0.061550 0.180680 -0.498051
O10   O     O_R   0.061550 0.499980 0.819320 -0.496691
O11   O     O_R   0.938450 0.500020 0.180680 -0.498070
O12   O     O_R   0.500020 0.061550 0.819320 -0.496651
O13   O     O_3   0.500000 0.000000 0.750000 -0.484517
O14   O     O_R   0.499980 0.938450 0.180680 -0.498053
O15   O     O_R   0.648010 0.086580 0.268180 -0.508438
O16   O     O_R   0.351990 0.913420 0.731820 -0.503159
O17   O     O_R   0.913420 0.648010 0.268180 -0.508350
O18   O     O_R   0.086580 0.351990 0.731820 -0.503149
O19   O     O_R   0.351990 0.913420 0.268180 -0.508438
O20   O     O_R   0.648010 0.086580 0.731820 -0.503155
O21   O     O_R   0.086580 0.351990 0.268180 -0.508350
O22   O     O_R   0.913420 0.648010 0.731820 -0.503143
O23   O     O_R   0.148010 0.586580 0.768180 -0.508306
O24   O     O_3   0.000000 0.500000 0.250000 -0.484519
O25   O     O_R   0.851990 0.413420 0.231820 -0.503185
O26   O     O_R   0.413420 0.148010 0.768180 -0.508259
O27   O     O_R   0.586580 0.851990 0.231820 -0.503167
O28   O     O_R   0.851990 0.413420 0.768180 -0.508303
O29   O     O_R   0.148010 0.586580 0.231820 -0.503187
O30   O     O_R   0.586580 0.851990 0.768180 -0.508256
O31   O     O_R   0.413420 0.148010 0.231820 -0.503167
O32   O     O_R   0.413460 0.851950 0.231830 -0.533648
O33   O     O_R   0.586540 0.148050 0.768170 -0.528443
O34   O     O_R   0.148050 0.413460 0.231830 -0.533681
O35   O     O_3   0.000000 0.500000 0.750000 -0.484501
O36   O     O_R   0.851950 0.586540 0.768170 -0.528446
O37   O     O_R   0.586540 0.148050 0.231830 -0.533650
O38   O     O_R   0.413460 0.851950 0.768170 -0.528434
O39   O     O_R   0.851950 0.586540 0.231830 -0.533680
O40   O     O_R   0.148050 0.413460 0.768170 -0.528437
O41   O     O_R   0.913460 0.351950 0.731830 -0.533737
O42   O     O_R   0.086540 0.648050 0.268170 -0.528306
O43   O     O_R   0.648050 0.913460 0.731830 -0.533761
O44   O     O_R   0.351950 0.086540 0.268170 -0.528309
O45   O     O_R   0.086540 0.648050 0.731830 -0.533735
O46   O     O_R   0.438450 0.000020 0.319320 -0.496675
O47   O     O_R   0.913460 0.351950 0.268170 -0.528308
O48   O     O_R   0.351950 0.086540 0.731830 -0.533753
O49   O     O_R   0.648050 0.913460 0.268170 -0.528305
O50   O     O_3   0.187057 0.266945 0.192734 -0.577077
O51   O     O_3   0.812904 0.733536 0.807349 -0.550834
O52   O     O_3   0.732965 0.187167 0.192716 -0.577082
O53   O     O_3   0.266549 0.812801 0.807364 -0.550840
O54   O     O_3   0.812938 0.733051 0.192734 -0.577086
O55   O     O_3   0.187115 0.266482 0.807351 -0.550829
O56   O     O_3   0.267037 0.812832 0.192716 -0.577084
O57   O     O_R   0.561550 0.999980 0.680680 -0.498036
O58   O     O_3   0.733473 0.187170 0.807361 -0.550844
O59   O     O_3   0.686841 0.766747 0.692768 -0.577100
O60   O     O_3   0.312683 0.233342 0.307382 -0.550650
O61   O     O_3   0.233172 0.686939 0.692752 -0.577128
O62   O     O_3   0.766751 0.312568 0.307399 -0.550710
O63   O     O_3   0.313140 0.233236 0.692766 -0.577104
O64   O     O_3   0.687322 0.766663 0.307382 -0.550653
O65   O     O_3   0.766806 0.313090 0.692756 -0.577122
O66   O     O_3   0.233247 0.687432 0.307399 -0.550711
O67   O     O_3   0.140950 0.215978 0.291730 -0.553789
O68   O     O_R   0.999980 0.438450 0.319320 -0.496650
O69   O     O_3   0.858720 0.784161 0.708190 -0.541806
O70   O     O_3   0.784103 0.140857 0.291678 -0.553899
O71   O     O_3   0.215771 0.858794 0.708234 -0.541821
O72   O     O_3   0.859055 0.784026 0.291726 -0.553790
O73   O     O_3   0.141266 0.215825 0.708199 -0.541810
O74   O     O_3   0.215896 0.859143 0.291678 -0.553900
O75   O     O_3   0.784213 0.141223 0.708222 -0.541816
O76   O     O_3   0.641121 0.716145 0.791829 -0.553747
O77   O     O_3   0.358881 0.284321 0.208287 -0.541811
O78   O     O_3   0.283927 0.641039 0.791783 -0.553785
O79   O     O_R   0.000020 0.561550 0.680680 -0.498041
O80   O     O_3   0.715604 0.358965 0.208337 -0.541821
O81   O     O_3   0.358893 0.283869 0.791820 -0.553743
O82   O     O_3   0.641114 0.715675 0.208290 -0.541814
O83   O     O_3   0.716090 0.358940 0.791796 -0.553786
O84   O     O_3   0.284398 0.641035 0.208337 -0.541822
O85   O     O_3   0.529778 0.131459 0.129830 -0.536200
O86   O     O_3   0.515189 0.866028 0.870282 -0.529434
O87   O     O_3   0.868555 0.529821 0.129830 -0.536239
O88   O     O_3   0.134007 0.514897 0.870284 -0.529451
O89   O     O_3   0.470222 0.868541 0.129830 -0.536201
O90   O     O_R   0.561550 0.999980 0.319320 -0.496686
O91   O     O_3   0.484817 0.133972 0.870282 -0.529436
O92   O     O_3   0.131445 0.470183 0.129830 -0.536237
O93   O     O_3   0.865991 0.485107 0.870285 -0.529453
O94   O     O_3   0.030109 0.631382 0.629832 -0.536216
O95   O     O_3   0.014602 0.365950 0.370282 -0.529384
O96   O     O_3   0.368629 0.030095 0.629835 -0.536238
O97   O     O_3   0.634106 0.013900 0.370280 -0.529492
O98   O     O_3   0.969885 0.368617 0.629833 -0.536209
O99   O     O_3   0.985400 0.634049 0.370280 -0.529385
O100  O     O_3   0.631370 0.969904 0.629835 -0.536234
Zn1   Zn    Zn3+2 0.499980 0.087890 0.224030 0.976703
Zn2   Zn    Zn3+2 0.000020 0.412110 0.275970 0.978299
Zn3   Zn    Zn3+2 0.412110 0.999980 0.724030 0.976663
Zn4   Zn    Zn3+2 0.587890 0.000020 0.275970 0.978232
Zn5   Zn    Zn3+2 0.000020 0.412110 0.724030 0.976687
Zn6   Zn    Zn3+2 0.999980 0.587890 0.275970 0.978299
Zn7   Zn    Zn3+2 0.587890 0.000020 0.724030 0.976667
Zn8   Zn    Zn3+2 0.412110 0.999980 0.275970 0.978234
Zn9   Zn    Zn3+2 0.500020 0.912110 0.775970 0.978291
Zn10  Zn    Zn3+2 0.912110 0.499980 0.224030 0.976651
Zn11  Zn    Zn3+2 0.087890 0.500020 0.775970 0.978235
Zn12  Zn    Zn3+2 0.500020 0.912110 0.224030 0.976703
Zn13  Zn    Zn3+2 0.499980 0.087890 0.775970 0.978286
Zn14  Zn    Zn3+2 0.087890 0.500020 0.224030 0.976652
Zn15  Zn    Zn3+2 0.912110 0.499980 0.775970 0.978236
Zn16  Zn    Zn3+2 0.999980 0.587890 0.724030 0.976689

loop_
_geom_bond_atom_site_label_1
_geom_bond_atom_site_label_2
_ccdc_geom_bond_type
C88   H38   S    
C6    C179  S    
C118  O21   A    
C132  C150  S    
C32   C45   A    
C73   H169  S    
C133  C151  S    
C153  O56   S    
C4    C177  S    
C140  H13   S    
C54   H110  S    
C94   O92   S    
C65   H146  S    
C142  H35   S    
C185  O71   S    
C152  O55   S    
C125  O42   A    
O42   Zn6   S    
C118  C164  S    
C141  C166  S    
C159  C187  S    
O7    Zn14  S    
C139  C164  S    
C159  C177  S    
C42   C51   A    
C4    C142  S    
C5    C143  S    
N1    N13   A    
C147  C190  S    
C10   C28   A    
C167  C185  S    
O1    Zn1   S    
C1    C68   S    
C8    C26   A    
O12   Zn13  S    
N9    N12   A    
C19   C37   A    
C64   H142  S    
O45   Zn16  S    
C127  O5    A    
C116  O4    A    
C78   H9    S    
C105  O2    A    
C121  O25   A    
C9    O86   S    
C138  O10   A    
C94   H55   S    
C75   H175  S    
C174  C191  S    
C81   H15   S    
C99   H71   S    
C110  N10   A    
O11   Zn10  S    
C78   H8    S    
C133  H122  S    
C123  C178  S    
C162  O65   S    
C69   O66   S    
C62   H135  S    
C28   H88   S    
C55   O53   S    
C181  O67   S    
C52   O50   S    
C39   H99   S    
C116  O68   A    
C15   C32   A    
C166  C184  S    
C169  C187  S    
C58   H120  S    
C101  N4    A    
C87   H37   S    
C74   H172  S    
O13   Zn13  S    
C81   O78   S    
C132  C175  S    
O24   Zn14  S    
C161  C186  S    
O35   Zn5   S    
C56   H119  S    
C106  N7    A    
C131  C184  S    
C120  C175  S    
C123  O49   A    
C91   H45   S    
C23   O100  S    
O5    Zn5   S    
C52   H104  S    
C58   H121  S    
C35   C127  S    
C21   O98   S    
C102  H80   S    
C60   H127  S    
C3    O80   S    
C84   H26   S    
C88   H40   S    
C78   O76   S    
O1    Zn12  S    
C33   C47   A    
C76   O74   S    
C30   C43   A    
C34   C48   A    
C17   C34   A    
C36   H96   S    
C54   H112  S    
C115  O19   A    
C113  O17   A    
C145  C170  S    
C126  O43   A    
O32   Zn12  S    
C66   H147  S    
C61   H130  S    
C20   C68   A    
C124  O41   A    
C103  H82   S    
C93   H52   S    
C5    C151  S    
C95   H60   S    
C135  C180  S    
C21   C35   A    
C111  O15   A    
O13   Zn3   S    
C145  C163  S    
C23   C41   A    
N4    N7    A    
C24   C138  S    
C96   H62   S    
C47   C109  S    
C37   C50   A    
C117  C172  S    
C186  O72   S    
C100  H74   S    
C161  O64   S    
C160  O12   A    
C43   C108  S    
C126  O30   A    
C134  C177  S    
C2    C14   A    
O6    Zn15  S    
C75   H173  S    
O30   Zn9   S    
C87   H36   S    
C159  O63   S    
C3    C176  S    
N3    N8    A    
C71   H160  S    
C63   H137  S    
C117  O33   A    
C55   H115  S    
C143  C161  S    
C89   H42   S    
C122  C177  S    
C80   H14   S    
C144  H57   S    
C91   O88   S    
C102  H77   S    
C65   H145  S    
C3    C141  S    
C14   C31   A    
C76   H176  S    
C112  O38   A    
C113  C168  S    
O38   Zn9   S    
C99   O97   S    
C29   C47   A    
C157  C185  S    
C128  O44   A    
C96   O94   S    
C130  C183  S    
C63   H139  S    
C140  C157  S    
C155  C183  S    
C133  C178  S    
C80   H11   S    
O24   Zn6   S    
C107  N9    A    
C69   H154  S    
C25   O3    S    
C85   O83   S    
C131  C176  S    
C137  C155  S    
C78   H10   S    
C52   H106  S    
C160  O8    A    
C59   H126  S    
C60   O58   S    
C164  C181  S    
C147  C165  S    
C192  O78   S    
C27   C44   A    
O39   Zn10  S    
C29   H90   S    
C67   H150  S    
C132  H111  S    
C7    C153  S    
C153  C170  S    
C113  O39   A    
C134  H133  S    
C114  O40   A    
O15   Zn4   S    
C77   H6    S    
C119  C165  S    
C67   H151  S    
C140  C167  S    
C70   H159  S    
C48   C90   S    
O17   Zn6   S    
C61   H132  S    
N6    N16   A    
C115  C170  S    
C95   H58   S    
C102  O99   S    
C97   H66   S    
O40   Zn11  S    
C82   H20   S    
C2    C160  S    
C59   O56   S    
C4    C152  S    
C157  O61   S    
C168  C186  S    
C149  O11   A    
C72   O70   S    
C109  N15   A    
C120  O45   A    
C131  C148  S    
C175  C192  S    
N11   N14   A    
C38   C51   A    
C100  H76   S    
C67   O65   S    
C112  C167  S    
C146  C164  S    
C138  O6    A    
C163  C188  S    
O28   Zn15  S    
C154  O58   S    
C92   H49   S    
C98   H70   S    
C104  H84   S    
C87   H34   S    
C162  C179  S    
O35   Zn16  S    
C189  O75   S    
C183  O69   S    
C88   O86   S    
O57   Zn7   S    
O68   Zn2   S    
C171  O9    A    
C10   O87   S    
C86   H31   S    
C6    C144  S    
C83   H22   S    
C85   H30   S    
C44   C107  S    
C105  O57   A    
C23   C57   A    
C127  O79   A    
C92   H48   S    
O13   Zn9   S    
C130  C147  S    
C149  O7    A    
C73   H168  S    
C70   O67   S    
O46   Zn8   S    
C132  C185  S    
C69   H156  S    
C128  C174  S    
C136  C189  S    
C89   O87   S    
C89   H43   S    
C13   C15   A    
C80   O77   S    
C53   H109  S    
C59   H124  S    
C122  O26   A    
C18   C36   A    
O2    Zn3   S    
C30   H91   S    
C7    C180  S    
C71   O69   S    
C125  O29   A    
C146  C191  S    
C71   H162  S    
C5    C178  S    
C137  C190  S    
C97   O95   S    
C56   H118  S    
C70   H157  S    
C114  O18   A    
C37   H97   S    
C81   H17   S    
C170  C188  S    
C86   H33   S    
C22   O99   S    
C53   H108  S    
C63   O61   S    
C2    C9    A    
C85   H29   S    
C20   O97   S    
C58   O55   S    
C7    C145  S    
C98   H67   S    
C114  C169  S    
C117  O20   A    
C74   H170  S    
C148  C166  S    
O16   Zn3   S    
C57   C105  S    
C54   H113  S    
C142  C159  S    
C137  C165  S    
C64   H140  S    
C62   H136  S    
O43   Zn7   S    
C19   C57   A    
C18   O95   S    
C136  C179  S    
C156  C174  S    
O41   Zn5   S    
O21   Zn2   S    
O31   Zn1   S    
C85   H28   S    
C60   H129  S    
C130  H89   S    
C139  C191  S    
C124  O28   A    
C18   C46   A    
C173  C190  S    
C72   H164  S    
N10   N15   A    
C118  O34   A    
C124  C179  S    
C76   H4    S    
C12   C182  A    
C19   O96   S    
C64   O62   S    
C60   H128  S    
C112  O16   A    
O44   Zn8   S    
O26   Zn13  S    
C155  O59   S    
O37   Zn1   S    
C190  O76   S    
C25   C68   A    
C56   O54   S    
C73   O71   S    
C141  H24   S    
C188  O74   S    
C1    O46   A    
C54   O52   S    
O24   Zn2   S    
C87   O85   S    
C130  C173  S    
C92   O89   S    
C66   H148  S    
C147  O51   S    
C103  H81   S    
C93   H51   S    
C79   N2    A    
C95   H59   S    
C90   N16   A    
C45   C110  S    
C15   O92   S    
C10   C13   A    
C49   C79   S    
C66   O64   S    
C137  H166  S    
C165  C183  S    
C104  H85   S    
C100  O98   S    
C136  C154  S    
C64   H141  S    
C134  C152  S    
C66   H149  S    
C7    O84   S    
C5    O82   S    
C94   H54   S    
O90   Zn4   S    
C129  C146  S    
C6    C154  S    
C126  C173  S    
C142  C169  S    
C131  H100  S    
C22   C46   A    
O27   Zn12  S    
C158  O62   S    
C129  C174  S    
C72   H165  S    
C41   C50   A    
O35   Zn11  S    
C62   H134  S    
C8    C182  A    
C171  O14   A    
C102  H78   S    
C12   C30   A    
C134  C187  S    
C17   O94   S    
C25   C42   A    
C83   H23   S    
C1    O90   A    
C111  O37   A    
C172  C189  S    
C51   C101  S    
C144  C172  S    
C46   C116  S    
C31   H92   S    
C136  H155  S    
C152  C169  S    
C80   H12   S    
C11   O88   S    
C108  N12   A    
C69   H153  S    
C150  C167  S    
C53   O51   S    
C150  O53   S    
C71   H161  S    
C14   O91   S    
C59   H125  S    
N2    N5    A    
C84   H25   S    
C103  H83   S    
C90   N5    A    
C141  C158  S    
C88   H39   S    
C33   H94   S    
C50   C106  S    
C109  N11   A    
C17   C35   A    
C163  O66   S    
C161  C178  S    
O36   Zn15  S    
C158  C184  S    
C72   H163  S    
C162  C189  S    
C36   C49   A    
C40   C49   A    
C39   C48   A    
C108  N1    A    
C81   H16   S    
C187  O73   S    
C61   H131  S    
C171  C182  S    
O49   Zn4   S    
C94   H56   S    
C97   H65   S    
O14   Zn12  S    
O1    Zn4   S    
C83   O81   S    
O25   Zn10  S    
C110  N14   A    
C76   H3    S    
C74   O72   S    
C96   H61   S    
C184  O70   S    
C121  C176  S    
C89   H41   S    
C151  C168  S    
C11   C24   A    
C38   H98   S    
C151  O54   S    
C62   O60   S    
C12   O89   S    
C75   H174  S    
C101  N8    A    
C92   H50   S    
C135  H144  S    
C120  O23   A    
C119  O36   A    
O35   Zn15  S    
C63   H138  S    
O34   Zn14  S    
C55   H116  S    
C9    C27   A    
C115  O32   A    
C93   O91   S    
C41   H102  S    
C155  C173  S    
O22   Zn16  S    
O18   Zn5   S    
C3    C148  S    
C16   C24   A    
O47   Zn2   S    
O8    Zn9   S    
C145  H68   S    
C143  H46   S    
C40   H101  S    
C121  O47   A    
C86   H32   S    
C125  C180  S    
C122  O48   A    
C123  O27   A    
C83   H21   S    
C26   C43   A    
C28   C45   A    
C31   C44   A    
O1    Zn8   S    
C73   H167  S    
O9    Zn1   S    
C32   H93   S    
C104  H86   S    
C27   H87   S    
C77   H5    S    
O48   Zn3   S    
C91   H44   S    
C128  O31   A    
C52   H105  S    
O29   Zn14  S    
C65   H143  S    
C84   H27   S    
C16   C33   A    
C20   C38   A    
C21   C39   A    
O13   Zn7   S    
C22   C40   A    
C34   H95   S    
C82   O80   S    
C75   O73   S    
C154  C172  S    
O10   Zn11  S    
C111  C166  S    
C77   H7    S    
C11   C29   A    
C67   H152  S    
C95   O93   S    
C93   H53   S    
C133  C186  S    
C157  C175  S    
C158  C176  S    
C70   H158  S    
C86   O84   S    
C97   H64   S    
C140  C192  S    
C84   O82   S    
C53   H107  S    
C79   N6    A    
C135  C188  S    
C61   O59   S    
C146  O50   S    
C82   H19   S    
C191  O77   S    
C129  C181  S    
C99   H73   S    
C144  C162  S    
C74   H171  S    
O33   Zn13  S    
C65   O63   S    
C96   H63   S    
C42   H103  S    
C104  O3    S    
C98   O96   S    
C99   H72   S    
C129  H1    S    
C156  C181  S    
C139  H2    S    
C100  H75   S    
O23   Zn11  S    
C106  N3    A    
C135  C153  S    
O20   Zn7   S    
C119  O22   A    
C58   H123  S    
C13   C149  S    
C148  O52   S    
O79   Zn16  S    
O19   Zn8   S    
C98   H69   S    
C16   O93   S    
O4    Zn6   S    
C139  C156  S    
C77   O75   S    
C156  O60   S    
C55   H114  S    
C143  C168  S    
C56   H117  S    
C150  C192  S    
C26   H79   S    
O24   Zn10  S    
C107  N13   A    
C8    O85   S    
C91   H47   S    
C163  C180  S    
C6    O83   S    
C82   H18   S    
C103  O100  S    
C4    O81   S    
