data_mof_unit_2237.cif
_audit_creation_date              2012-12-10T18:10:40-0500
_audit_creation_method            fapswitch 2.2
_symmetry_space_group_name_H-M    P1
_symmetry_Int_Tables_number       1
_space_group_crystal_system       triclinic
_cell_length_a                    18.311934
_cell_length_b                    18.313194
_cell_length_c                    47.374601
_cell_angle_alpha                 90.138239
_cell_angle_beta                  89.817155
_cell_angle_gamma                 89.805805
_cell_volume                      15886.853632

loop_
_atom_site_label
_atom_site_type_symbol
_atom_type_description
_atom_site_fract_x
_atom_site_fract_y
_atom_site_fract_z
_atom_type_partial_charge
C1    C     C_R   0.000036 0.860226 0.999973 0.840312
C2    C     C_R   0.139774 0.000009 0.999960 0.838821
C3    C     C_R   0.999981 0.139773 0.000028 0.839923
C4    C     C_R   0.860227 0.999981 0.000033 0.840012
C5    C     C_R   0.499886 0.360228 0.499970 0.840301
C6    C     C_R   0.639773 0.500122 0.499967 0.839701
C7    C     C_R   0.500124 0.639772 0.500024 0.840117
C8    C     C_R   0.360227 0.499876 0.500039 0.839844
C9    C     C_R   0.495958 0.933655 0.868875 0.329780
C10   C     C_R   0.035473 0.562659 0.870363 0.341588
C11   C     C_R   0.496536 0.066148 0.869196 0.316078
C12   C     C_R   0.970945 0.446104 0.869194 0.330098
C13   C     C_R   0.509665 0.064794 0.131158 0.310932
C14   C     C_R   0.064303 0.496308 0.131224 0.311914
C15   C     C_R   0.482972 0.935106 0.130790 0.309756
C16   C     C_R   0.932059 0.505701 0.130893 0.312220
C17   C     C_R   0.005902 0.437379 0.368459 0.304202
C18   C     C_R   0.565979 0.997062 0.368771 0.312888
C19   C     C_R   0.978660 0.567088 0.369691 0.311856
C20   C     C_R   0.433537 0.990927 0.369189 0.315680
C21   C     C_R   0.996260 0.567294 0.631217 0.312885
C22   C     C_R   0.562189 0.983723 0.631141 0.310452
C23   C     C_R   0.004610 0.435017 0.631369 0.312316
C24   C     C_R   0.435389 0.022729 0.630815 0.312229
C25   C     C_R   0.488555 0.934031 0.898539 0.262316
C26   C     C_R   0.036681 0.559432 0.900074 0.272264
C27   C     C_R   0.506338 0.066005 0.898610 0.277815
C28   C     C_R   0.966490 0.446469 0.898915 0.227743
C29   C     C_R   0.503429 0.066609 0.101539 0.272812
C30   C     C_R   0.065577 0.503233 0.101616 0.274982
C31   C     C_R   0.491941 0.933495 0.101282 0.275078
C32   C     C_R   0.932199 0.497847 0.101330 0.274460
C33   C     C_R   0.001342 0.434631 0.398155 0.271146
C34   C     C_R   0.566565 0.991659 0.398423 0.278399
C35   C     C_R   0.990295 0.567707 0.399075 0.260632
C36   C     C_R   0.433365 0.000569 0.398665 0.275254
C37   C     C_R   0.989212 0.566502 0.601587 0.275400
C38   C     C_R   0.565053 0.989935 0.601527 0.274854
C39   C     C_R   0.011135 0.434899 0.601695 0.276271
C40   C     C_R   0.433399 0.014140 0.601292 0.278703
C41   C     C_R   0.498640 0.999903 0.913824 -0.357622
C42   C     C_R   0.001246 0.502011 0.914359 -0.333132
C43   C     C_R   0.498471 0.000089 0.086179 -0.354391
C44   C     C_R   0.999257 0.500313 0.086222 -0.352745
C45   C     C_R   0.997347 0.500651 0.413835 -0.349094
C46   C     C_R   0.500091 0.997486 0.413788 -0.355003
C47   C     C_R   0.000071 0.500472 0.586351 -0.350259
C48   C     C_R   0.499444 0.001364 0.586188 -0.354604
C49   C     C_R   0.496283 0.000084 0.854083 0.043721
C50   C     C_R   0.003359 0.504925 0.854928 0.067847
C51   C     C_R   0.495894 0.999816 0.145823 0.046566
C52   C     C_R   0.997780 0.501140 0.145959 0.041561
C53   C     C_R   0.990982 0.502897 0.354218 0.058901
C54   C     C_R   0.499541 0.993418 0.354052 0.034413
C55   C     C_R   0.000566 0.501394 0.646253 0.040984
C56   C     C_R   0.498505 0.003615 0.645796 0.044339
C57   C     C_1   0.782720 0.999847 0.000078 -0.176667
C58   C     C_1   0.999942 0.782718 0.999927 -0.171451
C59   C     C_1   0.217281 0.000145 0.999882 -0.179438
C60   C     C_1   0.000081 0.217281 0.000079 -0.175991
C61   C     C_1   0.282719 0.499713 0.500116 -0.178576
C62   C     C_1   0.499723 0.282722 0.499911 -0.176009
C63   C     C_1   0.717281 0.500283 0.499918 -0.178791
C64   C     C_1   0.500291 0.717278 0.500054 -0.176520
C65   C     C_1   0.717385 0.999775 0.000049 -0.169826
C66   C     C_1   0.999850 0.717385 0.999943 -0.167435
C67   C     C_1   0.282616 0.000222 0.999889 -0.170347
C68   C     C_1   0.000163 0.282614 0.000071 -0.169692
C69   C     C_1   0.217384 0.499690 0.500108 -0.170886
C70   C     C_1   0.499694 0.217388 0.499912 -0.170144
C71   C     C_1   0.782616 0.500307 0.499943 -0.171121
C72   C     C_1   0.500315 0.782612 0.500029 -0.170161
C73   C     C_R   0.499706 0.999939 0.945311 0.885671
C74   C     C_R   0.000220 0.500533 0.945500 0.969549
C75   C     C_R   0.499658 0.000064 0.054693 0.898670
C76   C     C_R   0.999847 0.500055 0.054706 0.888799
C77   C     C_R   0.999583 0.500025 0.445308 0.899015
C78   C     C_R   0.500086 0.999403 0.445296 0.888856
C79   C     C_R   0.999987 0.500105 0.554748 0.884352
C80   C     C_R   0.499868 0.000311 0.554696 0.906758
C81   C     C_R   0.639899 0.999908 0.000004 0.827670
C82   C     C_R   0.999926 0.639900 0.999985 0.850249
C83   C     C_R   0.360101 0.000092 0.999954 0.825858
C84   C     C_R   0.000075 0.360100 0.000029 0.848733
C85   C     C_R   0.139898 0.499894 0.500045 0.828221
C86   C     C_R   0.499893 0.139900 0.499955 0.832657
C87   C     C_R   0.860101 0.500106 0.499987 0.826659
C88   C     C_R   0.500109 0.860099 0.499994 0.831339
C89   C     C_R   0.958956 0.448628 0.190533 0.628223
C90   C     C_R   0.544745 0.955026 0.189986 0.627669
C91   C     C_R   0.033303 0.555170 0.190697 0.630435
C92   C     C_R   0.447759 0.042069 0.190812 0.628341
C93   C     C_R   0.947443 0.539306 0.810596 0.658007
C94   C     C_R   0.549876 0.037706 0.809450 0.610246
C95   C     C_R   0.057705 0.469611 0.810295 0.555016
C96   C     C_R   0.441430 0.966312 0.809203 0.637868
C97   C     C_R   0.451277 0.957979 0.690176 0.622927
C98   C     C_R   0.059429 0.473285 0.690906 0.624663
C99   C     C_R   0.543131 0.049931 0.690482 0.624008
C100  C     C_R   0.942677 0.531035 0.691155 0.624607
C101  C     C_R   0.461202 0.047450 0.309790 0.624365
C102  C     C_R   0.038541 0.548213 0.309772 0.633238
C103  C     C_R   0.535617 0.940391 0.308943 0.634216
C104  C     C_R   0.942270 0.460978 0.309469 0.634756
C105  C     C_R   0.037169 0.553943 0.220397 -0.181678
C106  C     C_R   0.450551 0.045898 0.220510 -0.183503
C107  C     C_R   0.951729 0.451542 0.220145 -0.182481
C108  C     C_R   0.541637 0.947872 0.219543 -0.178273
C109  C     C_R   0.059678 0.469654 0.780514 -0.157719
C110  C     C_R   0.443626 0.961560 0.779525 -0.189398
C111  C     C_R   0.944063 0.537368 0.780785 -0.187393
C112  C     C_R   0.547257 0.045090 0.779874 -0.188414
C113  C     C_R   0.546956 0.047639 0.720173 -0.185642
C114  C     C_R   0.943731 0.536464 0.720893 -0.182400
C115  C     C_R   0.445852 0.960425 0.719829 -0.184529
C116  C     C_R   0.058987 0.468786 0.720659 -0.179577
C117  C     C_R   0.539503 0.942624 0.279234 -0.172191
C118  C     C_R   0.946210 0.455171 0.279831 -0.185907
C119  C     C_R   0.454331 0.045852 0.280196 -0.181522
C120  C     C_R   0.036869 0.553064 0.280109 -0.178304
C121  C     C_R   0.993624 0.503161 0.235200 -0.134769
C122  C     C_R   0.496150 0.996100 0.234957 -0.133423
C123  C     C_R   0.001677 0.503199 0.765692 -0.134015
C124  C     C_R   0.495617 0.003594 0.764760 -0.135114
C125  C     C_R   0.496071 0.003979 0.734917 -0.131780
C126  C     C_R   0.001417 0.502740 0.735756 -0.134903
C127  C     C_R   0.496589 0.994788 0.264793 -0.136475
C128  C     C_R   0.992143 0.503872 0.265039 -0.134536
C129  C     C_R   0.082587 0.602409 0.235620 0.378694
C130  C     C_R   0.408464 0.097122 0.236088 0.373089
C131  C     C_R   0.904812 0.403753 0.235059 0.374109
C132  C     C_R   0.583136 0.894571 0.234039 0.370504
C133  C     C_R   0.117770 0.437041 0.765231 0.347968
C134  C     C_R   0.395014 0.916502 0.764311 0.374758
C135  C     C_R   0.885572 0.569524 0.765667 0.371687
C136  C     C_R   0.595449 0.091713 0.765029 0.378930
C137  C     C_R   0.599031 0.088705 0.735496 0.371132
C138  C     C_R   0.888376 0.573875 0.736119 0.374729
C139  C     C_R   0.392908 0.919469 0.734782 0.376112
C140  C     C_R   0.114873 0.432221 0.735690 0.365337
C141  C     C_R   0.584395 0.894057 0.263646 0.357218
C142  C     C_R   0.905314 0.402652 0.264641 0.374019
C143  C     C_R   0.407377 0.094467 0.265648 0.377416
C144  C     C_R   0.079753 0.604361 0.265172 0.374439
Cu1   Cu    Cu3+1 0.000000 0.000000 0.028150 0.966099
Cu2   Cu    Cu3+1 0.000000 0.000000 0.971850 0.969777
Cu3   Cu    Cu3+1 0.500000 0.500000 0.528150 0.966453
Cu4   Cu    Cu3+1 0.500000 0.500000 0.471850 0.965769
Cu5   Cu    Cu3+1 0.500000 0.072590 0.000000 0.961992
Cu6   Cu    Cu3+1 0.927410 0.500000 0.000000 0.957919
Cu7   Cu    Cu3+1 0.500000 0.927410 0.000000 0.963553
Cu8   Cu    Cu3+1 0.072590 0.500000 0.000000 0.950600
Cu9   Cu    Cu3+1 0.000000 0.572590 0.500000 0.961234
Cu10  Cu    Cu3+1 0.427410 0.000000 0.500000 0.957441
Cu11  Cu    Cu3+1 0.000000 0.427410 0.500000 0.957997
Cu12  Cu    Cu3+1 0.572590 0.000000 0.500000 0.955757
N1    N     N_R   0.996837 0.501556 0.176423 -0.421707
N2    N     N_R   0.496177 0.999129 0.176240 -0.419737
N3    N     N_R   0.003085 0.505218 0.824523 -0.416749
N4    N     N_R   0.495960 0.001036 0.823583 -0.418867
N5    N     N_R   0.497664 0.003841 0.676207 -0.417393
N6    N     N_R   0.000885 0.501891 0.676795 -0.420990
N7    N     N_R   0.498811 0.993619 0.323572 -0.425802
N8    N     N_R   0.990172 0.504455 0.323792 -0.417606
O1    O     O_R   0.999960 0.894270 0.023780 -0.584624
O2    O     O_R   0.105730 0.999960 0.023780 -0.581744
O3    O     O_R   0.000040 0.105730 0.023780 -0.583393
O4    O     O_R   0.894270 0.000040 0.023780 -0.582329
O5    O     O_R   0.999960 0.105730 0.976220 -0.582163
O6    O     O_R   0.105730 0.000040 0.976220 -0.584916
O7    O     O_R   0.000040 0.894270 0.976220 -0.576477
O8    O     O_R   0.894270 0.999960 0.976220 -0.583060
O9    O     O_R   0.499960 0.394270 0.523780 -0.581793
O10   O     O_R   0.605730 0.499960 0.523780 -0.583117
O11   O     O_R   0.500040 0.605730 0.523780 -0.581840
O12   O     O_R   0.394270 0.500040 0.523780 -0.583270
O13   O     O_R   0.499960 0.605730 0.476220 -0.583277
O14   O     O_R   0.605730 0.500040 0.476220 -0.582250
O15   O     O_R   0.500040 0.394270 0.476220 -0.583107
O16   O     O_R   0.394270 0.499960 0.476220 -0.582079
O17   O     O_R   0.500020 0.061320 0.958950 -0.550072
O18   O     O_R   0.938680 0.500020 0.958950 -0.584696
O19   O     O_R   0.499980 0.938680 0.958950 -0.548214
O20   O     O_R   0.061320 0.499980 0.958950 -0.600522
O21   O     O_R   0.500020 0.938680 0.041050 -0.555917
O22   O     O_R   0.938680 0.499980 0.041050 -0.554149
O23   O     O_R   0.499980 0.061320 0.041050 -0.556552
O24   O     O_R   0.061320 0.500020 0.041050 -0.554056
O25   O     O_R   0.000020 0.561320 0.458950 -0.553344
O26   O     O_R   0.438680 0.000020 0.458950 -0.552996
O27   O     O_R   0.999980 0.438680 0.458950 -0.557823
O28   O     O_R   0.561320 0.999980 0.458950 -0.553766
O29   O     O_R   0.000020 0.438680 0.541050 -0.551797
O30   O     O_R   0.438680 0.999980 0.541050 -0.560068
O31   O     O_R   0.999980 0.561320 0.541050 -0.551426
O32   O     O_R   0.561320 0.000020 0.541050 -0.560147
O33   O     O_R   0.605800 0.061300 0.000010 -0.593959
O34   O     O_R   0.938700 0.605800 0.000010 -0.577480
O35   O     O_R   0.394200 0.938700 0.000010 -0.594255
O36   O     O_R   0.061300 0.394200 0.000010 -0.579796
O37   O     O_R   0.605800 0.938700 0.999990 -0.592772
O38   O     O_R   0.938700 0.394200 0.999990 -0.609863
O39   O     O_R   0.394200 0.061300 0.999990 -0.593083
O40   O     O_R   0.061300 0.605800 0.999990 -0.611435
O41   O     O_R   0.105800 0.561300 0.500010 -0.592997
O42   O     O_R   0.438700 0.105800 0.500010 -0.592409
O43   O     O_R   0.894200 0.438700 0.500010 -0.593530
O44   O     O_R   0.561300 0.894200 0.500010 -0.593552
O45   O     O_R   0.105800 0.438700 0.499990 -0.594324
O46   O     O_R   0.438700 0.894200 0.499990 -0.591519
O47   O     O_R   0.894200 0.561300 0.499990 -0.594168
O48   O     O_R   0.561300 0.105800 0.499990 -0.591809
O49   O     O_2   0.929422 0.392892 0.175863 -0.515194
O50   O     O_2   0.596363 0.919105 0.174985 -0.518987
O51   O     O_2   0.064547 0.610037 0.176099 -0.513723
O52   O     O_2   0.396579 0.079909 0.176508 -0.516895
O53   O     O_2   0.896151 0.575327 0.825697 -0.502410
O54   O     O_2   0.606505 0.065750 0.824004 -0.516783
O55   O     O_2   0.110280 0.435201 0.825116 -0.552324
O56   O     O_2   0.384661 0.937794 0.823610 -0.510007
O57   O     O_2   0.411550 0.909491 0.675283 -0.520797
O58   O     O_2   0.118337 0.450506 0.676107 -0.512463
O59   O     O_2   0.583505 0.098436 0.675856 -0.521147
O60   O     O_2   0.883474 0.553392 0.676624 -0.513715
O61   O     O_2   0.431794 0.103046 0.324771 -0.515044
O62   O     O_2   0.088926 0.585651 0.324587 -0.518668
O63   O     O_2   0.567527 0.885207 0.323187 -0.498800
O64   O     O_2   0.890699 0.424192 0.323972 -0.514907
O65   O     O_3   0.129849 0.649500 0.221917 -0.577564
C145  C     C_3   0.195007 0.612052 0.214382 0.139324
H1    H     H_    0.209771 0.628762 0.192581 0.188149
H2    H     H_    0.189771 0.551299 0.213906 0.105416
C146  C     C_3   0.256956 0.633718 0.234292 -0.357212
H3    H     H_    0.260915 0.694226 0.235340 0.231804
H4    H     H_    0.245198 0.612855 0.255813 0.254184
C147  C     C_3   0.329997 0.602359 0.224365 -0.952539
H5    H     H_    0.327348 0.541814 0.223264 0.262752
H6    H     H_    0.373432 0.617967 0.239502 0.269693
H7    H     H_    0.344436 0.624205 0.203222 0.255681
O66   O     O_3   0.365479 0.149017 0.222786 -0.575471
C148  C     C_3   0.409057 0.208783 0.214080 0.141489
H8    H     H_    0.387491 0.228019 0.193494 0.186822
H9    H     H_    0.467620 0.194434 0.210377 0.114597
C149  C     C_3   0.403398 0.271438 0.235424 -0.359415
H10   H     H_    0.344954 0.284869 0.239283 0.236953
H11   H     H_    0.428464 0.254498 0.255704 0.250070
C150  C     C_3   0.442649 0.339422 0.224730 -0.949387
H12   H     H_    0.501340 0.327231 0.220928 0.260960
H13   H     H_    0.438347 0.383603 0.240747 0.268835
H14   H     H_    0.417469 0.358842 0.204798 0.256598
O67   O     O_3   0.859653 0.355156 0.221075 -0.573953
C151  C     C_3   0.795649 0.391624 0.211838 0.137314
H15   H     H_    0.779687 0.367003 0.191325 0.185590
H16   H     H_    0.803614 0.451055 0.207743 0.116863
C152  C     C_3   0.733269 0.380854 0.233007 -0.358090
H17   H     H_    0.727036 0.321728 0.237657 0.238862
H18   H     H_    0.746199 0.409851 0.252982 0.247695
C153  C     C_3   0.661290 0.410594 0.221543 -0.951967
H19   H     H_    0.666248 0.469785 0.216833 0.261551
H20   H     H_    0.617519 0.403123 0.237539 0.269535
H21   H     H_    0.645658 0.380897 0.202010 0.256748
O68   O     O_3   0.625673 0.843755 0.219716 -0.572614
C154  C     C_3   0.581360 0.786056 0.209592 0.138356
H22   H     H_    0.604554 0.767891 0.189038 0.185933
H23   H     H_    0.523725 0.802555 0.205292 0.122268
C155  C     C_3   0.582713 0.721555 0.230079 -0.370499
H24   H     H_    0.640200 0.706524 0.234860 0.231710
H25   H     H_    0.555022 0.737355 0.250084 0.246704
C156  C     C_3   0.543911 0.655333 0.217617 -0.946281
H26   H     H_    0.486477 0.669372 0.212389 0.260197
H27   H     H_    0.543933 0.610136 0.233199 0.269490
H28   H     H_    0.572454 0.636414 0.198193 0.257326
O69   O     O_3   0.176380 0.405491 0.779001 -0.568143
C157  C     C_3   0.233827 0.456723 0.780139 0.125529
H29   H     H_    0.217243 0.505202 0.792958 0.135315
H30   H     H_    0.249811 0.475010 0.758558 0.151670
C158  C     C_3   0.300058 0.420714 0.793905 -0.313506
H31   H     H_    0.284830 0.401035 0.815305 0.240327
H32   H     H_    0.317531 0.373080 0.780934 0.215886
C159  C     C_3   0.363813 0.473689 0.796428 -0.942546
H33   H     H_    0.381195 0.492484 0.775184 0.263114
H34   H     H_    0.410712 0.445750 0.806619 0.263977
H35   H     H_    0.347910 0.521595 0.809520 0.256305
O70   O     O_3   0.348900 0.868373 0.778026 -0.574647
C160  C     C_3   0.387946 0.804065 0.785251 0.140744
H36   H     H_    0.372775 0.789416 0.807216 0.186923
H37   H     H_    0.448692 0.810239 0.785166 0.108337
C161  C     C_3   0.366337 0.741544 0.765532 -0.350780
H38   H     H_    0.305969 0.735458 0.765621 0.233398
H39   H     H_    0.384247 0.754231 0.743678 0.253323
C162  C     C_3   0.401414 0.669637 0.774534 -0.947444
H40   H     H_    0.461886 0.673966 0.773808 0.263226
H41   H     H_    0.384181 0.625502 0.759926 0.264615
H42   H     H_    0.384061 0.655126 0.796280 0.262787
O71   O     O_3   0.826759 0.601412 0.779485 -0.573313
C163  C     C_3   0.774183 0.547423 0.786139 0.126864
H43   H     H_    0.746970 0.564447 0.806104 0.183323
H44   H     H_    0.798392 0.492371 0.790212 0.120823
C164  C     C_3   0.716215 0.542389 0.762974 -0.344945
H45   H     H_    0.694065 0.597752 0.758512 0.241411
H46   H     H_    0.741244 0.520239 0.743357 0.246981
C165  C     C_3   0.653759 0.492311 0.771714 -0.949010
H47   H     H_    0.674803 0.436390 0.775824 0.264721
H48   H     H_    0.612946 0.489513 0.754467 0.269308
H49   H     H_    0.626374 0.513583 0.791022 0.258848
O72   O     O_3   0.641422 0.139879 0.778903 -0.571622
C166  C     C_3   0.600900 0.200964 0.788835 0.132286
H50   H     H_    0.632211 0.225992 0.806398 0.176305
H51   H     H_    0.546956 0.185619 0.797880 0.142729
C167  C     C_3   0.590799 0.258484 0.765679 -0.366709
H52   H     H_    0.645163 0.277177 0.758170 0.242343
H53   H     H_    0.560931 0.234504 0.747544 0.236944
C168  C     C_3   0.547144 0.323889 0.776629 -0.949747
H54   H     H_    0.491617 0.306524 0.783262 0.257835
H55   H     H_    0.541566 0.365082 0.759613 0.273705
H56   H     H_    0.575295 0.349416 0.794870 0.260449
O73   O     O_3   0.651818 0.130086 0.721993 -0.568102
C169  C     C_3   0.710847 0.084661 0.713518 0.137352
H57   H     H_    0.736046 0.109838 0.694538 0.183761
H58   H     H_    0.693561 0.028684 0.707052 0.125964
C170  C     C_3   0.768768 0.079978 0.736712 -0.360098
H59   H     H_    0.785426 0.135954 0.743065 0.245220
H60   H     H_    0.745713 0.051775 0.755441 0.241011
C171  C     C_3   0.835871 0.037644 0.726582 -0.946862
H61   H     H_    0.820296 0.981442 0.720175 0.260758
H62   H     H_    0.876345 0.034061 0.743930 0.269265
H63   H     H_    0.861628 0.065744 0.708362 0.256025
O74   O     O_3   0.834394 0.613339 0.722440 -0.577162
C172  C     C_3   0.861598 0.682789 0.714561 0.133742
H64   H     H_    0.832916 0.699386 0.694959 0.184854
H65   H     H_    0.921057 0.682485 0.709327 0.121341
C173  C     C_3   0.845604 0.739600 0.737576 -0.357795
H66   H     H_    0.786488 0.738724 0.742965 0.238202
H67   H     H_    0.877266 0.726160 0.756842 0.246666
C174  C     C_3   0.866557 0.816223 0.727952 -0.953451
H68   H     H_    0.925787 0.818503 0.722888 0.261932
H69   H     H_    0.854666 0.855951 0.745117 0.270581
H70   H     H_    0.834725 0.832073 0.709001 0.255911
O75   O     O_3   0.340642 0.878424 0.720898 -0.575459
C175  C     C_3   0.281842 0.923958 0.712536 0.132967
H71   H     H_    0.258110 0.899885 0.693080 0.184409
H72   H     H_    0.299010 0.980512 0.706880 0.123537
C176  C     C_3   0.222460 0.926464 0.735368 -0.360048
H73   H     H_    0.206372 0.869892 0.741066 0.242978
H74   H     H_    0.243927 0.954022 0.754515 0.241734
C177  C     C_3   0.155269 0.968201 0.725206 -0.944901
H75   H     H_    0.170262 0.024959 0.719424 0.261238
H76   H     H_    0.113744 0.970250 0.742323 0.269293
H77   H     H_    0.131049 0.940588 0.706571 0.255780
O76   O     O_3   0.169351 0.393197 0.721903 -0.570185
C178  C     C_3   0.143171 0.322961 0.714462 0.137994
H78   H     H_    0.174352 0.304565 0.695575 0.183524
H79   H     H_    0.084492 0.322995 0.708200 0.124517
C179  C     C_3   0.155923 0.268085 0.738362 -0.361509
H80   H     H_    0.214137 0.269697 0.744909 0.240283
H81   H     H_    0.121328 0.282771 0.756832 0.240931
C180  C     C_3   0.136690 0.190614 0.729140 -0.959295
H82   H     H_    0.078271 0.187614 0.722999 0.261124
H83   H     H_    0.146273 0.152330 0.746899 0.270170
H84   H     H_    0.171238 0.173440 0.710979 0.257504
O77   O     O_3   0.628815 0.843756 0.277053 -0.570719
C181  C     C_3   0.700887 0.871255 0.278672 0.130525
H85   H     H_    0.708338 0.897760 0.299607 0.167758
H86   H     H_    0.714226 0.912239 0.261989 0.123062
C182  C     C_3   0.754663 0.807672 0.275709 -0.312351
H87   H     H_    0.742753 0.765926 0.292039 0.229850
H88   H     H_    0.747850 0.781911 0.254619 0.234524
C183  C     C_3   0.833535 0.833096 0.278765 -0.960891
H89   H     H_    0.846880 0.874023 0.262285 0.267395
H90   H     H_    0.870974 0.785689 0.276244 0.253748
H91   H     H_    0.842265 0.857652 0.299942 0.257381
O78   O     O_3   0.862792 0.351007 0.278275 -0.574906
C184  C     C_3   0.907354 0.292930 0.288056 0.135138
H92   H     H_    0.880394 0.269669 0.307042 0.184119
H93   H     H_    0.962615 0.310915 0.294949 0.130783
C185  C     C_3   0.914317 0.232685 0.265714 -0.362939
H94   H     H_    0.858989 0.215050 0.258999 0.241853
H95   H     H_    0.944007 0.253944 0.246999 0.242962
C186  C     C_3   0.956142 0.166962 0.277186 -0.949640
H96   H     H_    0.011913 0.183429 0.283767 0.259957
H97   H     H_    0.960968 0.124513 0.260504 0.268908
H98   H     H_    0.926879 0.143252 0.295562 0.257492
O79   O     O_3   0.361434 0.142178 0.279981 -0.575870
C187  C     C_3   0.297917 0.104914 0.289144 0.135788
H99   H     H_    0.280744 0.129680 0.309550 0.185239
H100  H     H_    0.307107 0.045686 0.293412 0.120500
C188  C     C_3   0.235956 0.114398 0.267815 -0.360340
H101  H     H_    0.228566 0.173349 0.263020 0.239128
H102  H     H_    0.250132 0.085309 0.247931 0.245614
C189  C     C_3   0.164291 0.083740 0.279203 -0.951769
H103  H     H_    0.170355 0.024664 0.283994 0.260596
H104  H     H_    0.120776 0.090483 0.263141 0.270430
H105  H     H_    0.147531 0.113367 0.298677 0.257551
O80   O     O_3   0.121915 0.655476 0.279184 -0.577814
C190  C     C_3   0.078775 0.717102 0.286594 0.139632
H106  H     H_    0.091208 0.731085 0.308901 0.188798
H107  H     H_    0.018509 0.707769 0.285565 0.106212
C191  C     C_3   0.099330 0.782086 0.267971 -0.356159
H108  H     H_    0.159555 0.789547 0.268223 0.231941
H109  H     H_    0.082128 0.771194 0.245908 0.254806
C192  C     C_3   0.062649 0.852327 0.278204 -0.948826
H110  H     H_    0.002327 0.846468 0.277804 0.266385
H111  H     H_    0.078288 0.898182 0.264158 0.268344
H112  H     H_    0.080307 0.865550 0.300031 0.254958
O81   O     O_3   0.493649 0.868370 0.854095 -0.587754
C193  C     C_3   0.562093 0.832556 0.855504 0.084077
H113  H     H_    0.551571 0.772904 0.854428 0.166230
H114  H     H_    0.591861 0.842353 0.875687 0.149867
C194  C     C_3   0.609873 0.854117 0.830275 -0.393399
H115  H     H_    0.578241 0.847905 0.810422 0.222249
H116  H     H_    0.626240 0.912162 0.832447 0.238501
C195  C     C_3   0.678627 0.807023 0.828455 -0.864886
H117  H     H_    0.711464 0.812940 0.847997 0.262886
H118  H     H_    0.712292 0.824652 0.810177 0.262714
H119  H     H_    0.663939 0.748705 0.825484 0.254543
O82   O     O_3   0.056866 0.627051 0.857387 -0.555211
C196  C     C_3   0.120026 0.616195 0.840627 0.067696
H120  H     H_    0.103540 0.604064 0.818612 0.151295
H121  H     H_    0.155811 0.571272 0.848586 0.132675
C197  C     C_3   0.163920 0.686972 0.839965 -0.312818
H122  H     H_    0.130065 0.731084 0.830547 0.236501
H123  H     H_    0.178535 0.703691 0.861775 0.221554
C198  C     C_3   0.233652 0.677920 0.822614 -0.956389
H124  H     H_    0.269502 0.635687 0.832163 0.250966
H125  H     H_    0.263410 0.730525 0.822231 0.272699
H126  H     H_    0.220466 0.661881 0.800585 0.256208
O83   O     O_3   0.489522 0.131558 0.854934 -0.584551
C199  C     C_3   0.414415 0.149016 0.852956 0.081272
H127  H     H_    0.396533 0.176572 0.872778 0.170493
H128  H     H_    0.379490 0.099870 0.849437 0.141965
C200  C     C_3   0.402645 0.200445 0.828030 -0.359764
H129  H     H_    0.436727 0.250077 0.830724 0.224387
H130  H     H_    0.419523 0.172279 0.808239 0.212539
C201  C     C_3   0.322616 0.222920 0.825476 -0.902642
H131  H     H_    0.287437 0.173974 0.823180 0.262011
H132  H     H_    0.315427 0.257576 0.806519 0.253801
H133  H     H_    0.305170 0.254449 0.844403 0.258989
O84   O     O_3   0.938921 0.391050 0.853536 -0.606150
C202  C     C_3   0.982704 0.327370 0.854696 0.108133
H134  H     H_    0.964542 0.293006 0.872700 0.173222
H135  H     H_    0.042097 0.339341 0.857299 0.168307
C203  C     C_3   0.972981 0.284547 0.827234 -0.333510
H136  H     H_    0.914897 0.268043 0.825086 0.221019
H137  H     H_    0.987336 0.319993 0.809033 0.232996
C204  C     C_3   0.021333 0.216541 0.826483 -0.902511
H138  H     H_    0.079834 0.232075 0.827753 0.270528
H139  H     H_    0.012452 0.186596 0.806380 0.258469
H140  H     H_    0.007635 0.179841 0.844353 0.255214
O85   O     O_3   0.524739 0.128044 0.146004 -0.589722
C205  C     C_3   0.601060 0.133492 0.149399 0.077981
H141  H     H_    0.627423 0.145209 0.128680 0.167547
H142  H     H_    0.624645 0.082228 0.158302 0.150658
C206  C     C_3   0.617397 0.195906 0.169857 -0.353556
H143  H     H_    0.593541 0.247533 0.161650 0.223966
H144  H     H_    0.591913 0.183944 0.190651 0.213737
C207  C     C_3   0.699398 0.205782 0.173895 -0.900696
H145  H     H_    0.724375 0.154782 0.182138 0.262670
H146  H     H_    0.709162 0.250290 0.189335 0.258579
H147  H     H_    0.725862 0.220436 0.153559 0.258927
O86   O     O_3   0.129115 0.490248 0.145948 -0.586470
C208  C     C_3   0.145297 0.415480 0.149585 0.077790
H148  H     H_    0.156247 0.389199 0.128745 0.165468
H149  H     H_    0.099372 0.386684 0.160304 0.149547
C209  C     C_3   0.213345 0.408333 0.167974 -0.347536
H150  H     H_    0.259535 0.437661 0.157844 0.225419
H151  H     H_    0.202546 0.433734 0.188904 0.212441
C210  C     C_3   0.234761 0.328523 0.172255 -0.902156
H152  H     H_    0.189660 0.298339 0.182696 0.263687
H153  H     H_    0.283858 0.325444 0.185890 0.254903
H154  H     H_    0.247636 0.302308 0.151653 0.258491
O87   O     O_3   0.466752 0.871651 0.145243 -0.592649
C211  C     C_3   0.390193 0.866204 0.147830 0.075978
H155  H     H_    0.365145 0.857936 0.126657 0.166961
H156  H     H_    0.366505 0.916229 0.157823 0.150989
C212  C     C_3   0.371938 0.800805 0.166497 -0.355218
H157  H     H_    0.396349 0.750469 0.157238 0.224418
H158  H     H_    0.395641 0.809302 0.187818 0.213567
C213  C     C_3   0.289581 0.790703 0.169368 -0.896907
H159  H     H_    0.264100 0.840183 0.178840 0.262156
H160  H     H_    0.278289 0.743485 0.183305 0.258601
H161  H     H_    0.264830 0.780023 0.148386 0.258476
O88   O     O_3   0.866592 0.512598 0.145303 -0.587401
C214  C     C_3   0.850010 0.587562 0.148198 0.077772
H162  H     H_    0.838082 0.611731 0.127137 0.167835
H163  H     H_    0.896072 0.617766 0.158178 0.148847
C215  C     C_3   0.782667 0.595965 0.167074 -0.351770
H164  H     H_    0.736478 0.564780 0.157874 0.225624
H165  H     H_    0.794793 0.573355 0.188296 0.211709
C216  C     C_3   0.760245 0.675892 0.170272 -0.900545
H166  H     H_    0.805401 0.707996 0.179717 0.264991
H167  H     H_    0.711891 0.679853 0.184382 0.255344
H168  H     H_    0.745814 0.699362 0.149410 0.257822
O89   O     O_3   0.020565 0.374619 0.353136 -0.593240
C217  C     C_3   0.096934 0.367441 0.350053 0.075941
H169  H     H_    0.122188 0.354591 0.370829 0.171263
H170  H     H_    0.121671 0.418407 0.341443 0.147608
C218  C     C_3   0.113216 0.305139 0.329430 -0.356455
H171  H     H_    0.087041 0.254163 0.337079 0.224624
H172  H     H_    0.090080 0.318782 0.308431 0.212306
C219  C     C_3   0.195189 0.292229 0.326233 -0.900998
H173  H     H_    0.222442 0.342446 0.318458 0.262690
H174  H     H_    0.204958 0.247674 0.310747 0.258120
H175  H     H_    0.219363 0.276126 0.346784 0.258256
O90   O     O_3   0.631318 0.999676 0.354093 -0.581652
C220  C     C_3   0.647865 0.073209 0.348063 0.081885
H176  H     H_    0.661527 0.102769 0.367928 0.162366
H177  H     H_    0.601285 0.101329 0.337493 0.148111
C221  C     C_3   0.713725 0.075271 0.328187 -0.344725
H178  H     H_    0.760923 0.047650 0.338358 0.223410
H179  H     H_    0.700422 0.045343 0.308416 0.211357
C222  C     C_3   0.734911 0.153512 0.320841 -0.909726
H180  H     H_    0.688860 0.181811 0.310216 0.263621
H181  H     H_    0.782602 0.152899 0.306308 0.255197
H182  H     H_    0.749928 0.184103 0.340238 0.258916
O91   O     O_3   0.961305 0.631003 0.355675 -0.590429
C223  C     C_3   0.885965 0.645110 0.359163 0.076199
H183  H     H_    0.870036 0.645428 0.381904 0.172227
H184  H     H_    0.853473 0.602944 0.347822 0.147863
C224  C     C_3   0.868313 0.720093 0.346825 -0.343966
H185  H     H_    0.903915 0.761846 0.356789 0.226229
H186  H     H_    0.879544 0.719484 0.323762 0.220651
C225  C     C_3   0.788573 0.740988 0.351955 -0.911262
H187  H     H_    0.751822 0.701072 0.341556 0.261699
H188  H     H_    0.777724 0.796063 0.343137 0.265141
H189  H     H_    0.776539 0.742449 0.374943 0.257393
O92   O     O_3   0.368099 0.984567 0.354905 -0.586884
C226  C     C_3   0.350483 0.909804 0.352775 0.076457
H190  H     H_    0.342148 0.885997 0.374179 0.165707
H191  H     H_    0.394598 0.879047 0.341567 0.148220
C227  C     C_3   0.279814 0.901886 0.335980 -0.348790
H192  H     H_    0.235638 0.933838 0.346456 0.226108
H193  H     H_    0.288017 0.923939 0.314375 0.211728
C228  C     C_3   0.256442 0.822152 0.333788 -0.900712
H194  H     H_    0.299258 0.789398 0.322886 0.263328
H195  H     H_    0.205132 0.818414 0.321469 0.257149
H196  H     H_    0.246551 0.799173 0.355137 0.257676
O93   O     O_3   0.993846 0.632955 0.645672 -0.584994
C229  C     C_3   0.065964 0.658341 0.649143 0.078440
H197  H     H_    0.090192 0.672347 0.628242 0.166461
H198  H     H_    0.100819 0.616478 0.659681 0.149909
C230  C     C_3   0.064557 0.726797 0.667651 -0.343662
H199  H     H_    0.029328 0.768978 0.657691 0.226015
H200  H     H_    0.041112 0.713065 0.688633 0.211801
C231  C     C_3   0.141078 0.757810 0.671753 -0.910186
H201  H     H_    0.176953 0.716865 0.682090 0.264466
H202  H     H_    0.138083 0.807098 0.685407 0.253430
H203  H     H_    0.165173 0.773470 0.651095 0.258293
O94   O     O_3   0.623531 0.962532 0.646019 -0.592539
C232  C     C_3   0.620146 0.886555 0.650825 0.079613
H204  H     H_    0.634371 0.856779 0.631029 0.165762
H205  H     H_    0.564852 0.869009 0.658071 0.153153
C233  C     C_3   0.674950 0.866416 0.673803 -0.353696
H206  H     H_    0.730802 0.882500 0.667040 0.221205
H207  H     H_    0.661092 0.896673 0.693490 0.215903
C234  C     C_3   0.673900 0.784642 0.679908 -0.907990
H208  H     H_    0.618426 0.767381 0.686638 0.263343
H209  H     H_    0.712672 0.772095 0.697181 0.258442
H210  H     H_    0.690412 0.753279 0.660816 0.260206
O95   O     O_3   0.007352 0.369806 0.645988 -0.585194
C235  C     C_3   0.935290 0.344862 0.650181 0.078615
H211  H     H_    0.910352 0.329744 0.629559 0.166072
H212  H     H_    0.900861 0.387393 0.660694 0.150006
C236  C     C_3   0.937146 0.277495 0.669141 -0.343670
H213  H     H_    0.971846 0.234603 0.659192 0.225842
H214  H     H_    0.961424 0.292358 0.689835 0.211846
C237  C     C_3   0.860672 0.247043 0.674067 -0.910400
H215  H     H_    0.825329 0.288737 0.684395 0.265153
H216  H     H_    0.863978 0.198565 0.688038 0.253259
H217  H     H_    0.835769 0.230263 0.653716 0.258175
O96   O     O_3   0.373466 0.044840 0.645333 -0.592337
C238  C     C_3   0.378104 0.120477 0.650993 0.081298
H218  H     H_    0.359203 0.151368 0.632169 0.164716
H219  H     H_    0.434707 0.138337 0.656291 0.152174
C239  C     C_3   0.328936 0.138715 0.676182 -0.355856
H220  H     H_    0.271788 0.122725 0.671383 0.219880
H221  H     H_    0.347571 0.107214 0.694873 0.215414
C240  C     C_3   0.331133 0.220024 0.683243 -0.905970
H222  H     H_    0.387903 0.237171 0.688032 0.264726
H223  H     H_    0.296654 0.231069 0.702081 0.259226
H224  H     H_    0.309973 0.252613 0.665275 0.259797
O97   O     O_3   0.474090 0.869251 0.912545 -0.572149
C241  C     C_3   0.400229 0.848899 0.908198 0.111046
H225  H     H_    0.396786 0.788604 0.910322 0.152026
H226  H     H_    0.379813 0.861799 0.886612 0.178069
C242  C     C_3   0.350195 0.883796 0.930524 -0.360807
H227  H     H_    0.365168 0.862614 0.951686 0.246067
H228  H     H_    0.357017 0.944022 0.930541 0.207585
C243  C     C_3   0.270112 0.866821 0.924812 -0.921735
H229  H     H_    0.252804 0.891672 0.904530 0.266470
H230  H     H_    0.235700 0.889643 0.942070 0.269139
H231  H     H_    0.261662 0.806996 0.923746 0.260977
O98   O     O_3   0.065977 0.616688 0.915365 -0.566995
C244  C     C_3   0.142269 0.606287 0.917556 0.094439
H232  H     H_    0.168945 0.612744 0.896674 0.137661
H233  H     H_    0.155930 0.550973 0.925785 0.145487
C245  C     C_3   0.173271 0.663442 0.937703 -0.311715
H234  H     H_    0.160928 0.718895 0.929487 0.223921
H235  H     H_    0.146884 0.657858 0.958716 0.243673
C246  C     C_3   0.255718 0.654691 0.941020 -0.962407
H236  H     H_    0.269034 0.599689 0.949437 0.262206
H237  H     H_    0.276383 0.696395 0.956028 0.265257
H238  H     H_    0.283530 0.662171 0.920356 0.253428
O99   O     O_3   0.518265 0.131460 0.912581 -0.566728
C247  C     C_3   0.590630 0.155601 0.907411 0.118701
H239  H     H_    0.591633 0.215674 0.910701 0.154060
H240  H     H_    0.609061 0.146203 0.885230 0.177601
C248  C     C_3   0.644467 0.120397 0.928131 -0.368265
H241  H     H_    0.629605 0.136597 0.950022 0.247785
H242  H     H_    0.641719 0.059965 0.926457 0.207565
C249  C     C_3   0.722754 0.143995 0.922115 -0.920659
H243  H     H_    0.739856 0.125654 0.900720 0.267568
H244  H     H_    0.759967 0.119197 0.937913 0.267610
H245  H     H_    0.727340 0.204236 0.923453 0.261462
O100  O     O_3   0.932521 0.389967 0.913094 -0.607358
C250  C     C_3   0.856187 0.401310 0.912425 0.113697
H246  H     H_    0.834637 0.388591 0.891042 0.176113
H247  H     H_    0.841428 0.458752 0.918055 0.150255
C251  C     C_3   0.820090 0.350508 0.933808 -0.333251
H248  H     H_    0.832912 0.292875 0.928237 0.221081
H249  H     H_    0.842317 0.361801 0.955172 0.246891
C252  C     C_3   0.737392 0.361127 0.934446 -0.956907
H250  H     H_    0.723508 0.418336 0.940237 0.263343
H251  H     H_    0.712963 0.324149 0.950409 0.262751
H252  H     H_    0.713639 0.348203 0.913478 0.255925
O101  O     O_3   0.509304 0.132778 0.087519 -0.571372
C253  C     C_3   0.446525 0.176639 0.092621 0.117331
H253  H     H_    0.463288 0.234678 0.090785 0.152479
H254  H     H_    0.423231 0.170418 0.114243 0.176506
C254  C     C_3   0.387226 0.161523 0.070623 -0.352219
H255  H     H_    0.408981 0.173118 0.049181 0.246115
H256  H     H_    0.370960 0.103170 0.071582 0.212308
C255  C     C_3   0.319789 0.208970 0.075759 -0.921443
H257  H     H_    0.296041 0.197383 0.096882 0.261651
H258  H     H_    0.278067 0.196907 0.059456 0.267456
H259  H     H_    0.334253 0.267733 0.074483 0.256438
O102  O     O_3   0.132172 0.506656 0.087664 -0.569562
C256  C     C_3   0.165460 0.575503 0.092337 0.118451
H260  H     H_    0.225554 0.567264 0.091439 0.154276
H261  H     H_    0.153444 0.599528 0.113512 0.173742
C257  C     C_3   0.143798 0.629788 0.069233 -0.355707
H262  H     H_    0.160073 0.607578 0.048282 0.248174
H263  H     H_    0.083637 0.637946 0.069469 0.208929
C258  C     C_3   0.180700 0.703547 0.073535 -0.920243
H264  H     H_    0.164252 0.727621 0.094153 0.261883
H265  H     H_    0.163972 0.741441 0.056450 0.266149
H266  H     H_    0.241037 0.697214 0.072904 0.256989
O103  O     O_3   0.487367 0.867355 0.087051 -0.571013
C259  C     C_3   0.549694 0.823507 0.092727 0.118695
H267  H     H_    0.533129 0.765465 0.090586 0.151716
H268  H     H_    0.571080 0.829693 0.114600 0.177904
C260  C     C_3   0.610906 0.838687 0.071413 -0.352160
H269  H     H_    0.591067 0.827149 0.049719 0.245850
H270  H     H_    0.627061 0.897039 0.072682 0.212748
C261  C     C_3   0.677864 0.791231 0.077174 -0.921956
H271  H     H_    0.699717 0.802773 0.098571 0.262014
H272  H     H_    0.721018 0.803325 0.061359 0.267690
H273  H     H_    0.663532 0.732469 0.075613 0.256155
O104  O     O_3   0.866196 0.493986 0.087135 -0.569748
C262  C     C_3   0.832825 0.425203 0.091808 0.118179
H274  H     H_    0.772762 0.433315 0.090661 0.154163
H275  H     H_    0.843977 0.401749 0.113077 0.173390
C263  C     C_3   0.855563 0.370386 0.068890 -0.355955
H276  H     H_    0.840086 0.392034 0.047843 0.248220
H277  H     H_    0.915727 0.362379 0.069358 0.209137
C264  C     C_3   0.818666 0.296647 0.073191 -0.919071
H278  H     H_    0.834340 0.273122 0.093907 0.262297
H279  H     H_    0.836178 0.258378 0.056234 0.266226
H280  H     H_    0.758345 0.302820 0.072331 0.256838
O105  O     O_3   0.008051 0.368078 0.411852 -0.573307
C265  C     C_3   0.945141 0.324638 0.407191 0.115892
H281  H     H_    0.962164 0.266475 0.408539 0.152416
H282  H     H_    0.920628 0.331711 0.385861 0.176047
C266  C     C_3   0.887078 0.339220 0.429911 -0.350839
H283  H     H_    0.910101 0.326830 0.451043 0.246253
H284  H     H_    0.870581 0.397659 0.429422 0.212181
C267  C     C_3   0.819514 0.292186 0.425299 -0.921204
H285  H     H_    0.794497 0.304581 0.404514 0.262641
H286  H     H_    0.778733 0.303844 0.442128 0.266947
H287  H     H_    0.834233 0.233334 0.426116 0.256223
O106  O     O_3   0.632812 0.986553 0.412396 -0.567886
C268  C     C_3   0.663905 0.916169 0.408355 0.116157
H288  H     H_    0.724227 0.922115 0.409038 0.156056
H289  H     H_    0.651142 0.891159 0.387458 0.175594
C269  C     C_3   0.640509 0.864395 0.432057 -0.353063
H290  H     H_    0.657739 0.887312 0.452716 0.249501
H291  H     H_    0.580106 0.858782 0.432105 0.207933
C270  C     C_3   0.674695 0.788857 0.428370 -0.924088
H292  H     H_    0.656974 0.764058 0.408105 0.262947
H293  H     H_    0.656959 0.752928 0.445938 0.268433
H294  H     H_    0.735222 0.792656 0.428628 0.255452
O107  O     O_3   0.988195 0.633610 0.413585 -0.575786
C271  C     C_3   0.050869 0.675884 0.407128 0.116165
H295  H     H_    0.035853 0.734275 0.409949 0.149943
H296  H     H_    0.069828 0.670129 0.384850 0.179828
C272  C     C_3   0.113737 0.657886 0.427262 -0.349902
H297  H     H_    0.096246 0.668803 0.449358 0.245466
H298  H     H_    0.128478 0.599175 0.425294 0.211720
C273  C     C_3   0.181089 0.703763 0.420711 -0.923953
H299  H     H_    0.200610 0.692704 0.398882 0.262571
H300  H     H_    0.225449 0.689681 0.435690 0.266944
H301  H     H_    0.168190 0.762818 0.422934 0.256057
O108  O     O_3   0.367221 0.006925 0.412814 -0.569430
C274  C     C_3   0.335427 0.076380 0.407637 0.118005
H302  H     H_    0.275209 0.070162 0.409087 0.153757
H303  H     H_    0.346894 0.098103 0.386102 0.175283
C275  C     C_3   0.359665 0.131901 0.429952 -0.357848
H304  H     H_    0.343947 0.112022 0.451255 0.249305
H305  H     H_    0.419981 0.138095 0.429179 0.208759
C276  C     C_3   0.324413 0.206419 0.425106 -0.915344
H306  H     H_    0.340397 0.228175 0.404115 0.262531
H307  H     H_    0.342972 0.245196 0.441633 0.266969
H308  H     H_    0.263983 0.202100 0.426255 0.256408
O109  O     O_3   0.976995 0.631601 0.587466 -0.569166
C277  C     C_3   0.903866 0.655200 0.591668 0.116300
H309  H     H_    0.903671 0.715856 0.591391 0.156866
H310  H     H_    0.880209 0.638945 0.612454 0.170271
C278  C     C_3   0.854994 0.627742 0.567724 -0.359506
H311  H     H_    0.876579 0.647780 0.547228 0.251304
H312  H     H_    0.855200 0.567072 0.567395 0.206599
C279  C     C_3   0.776482 0.654433 0.571299 -0.909809
H313  H     H_    0.753158 0.634018 0.591453 0.261700
H314  H     H_    0.742745 0.633668 0.553588 0.267234
H315  H     H_    0.774455 0.715064 0.571197 0.256910
O110  O     O_3   0.630463 0.977183 0.587446 -0.571919
C280  C     C_3   0.680942 0.034134 0.592977 0.119798
H316  H     H_    0.736736 0.010336 0.591674 0.152655
H317  H     H_    0.675859 0.058354 0.614499 0.176482
C281  C     C_3   0.674492 0.094719 0.570863 -0.348426
H318  H     H_    0.685002 0.071571 0.549524 0.243038
H319  H     H_    0.618405 0.118079 0.571350 0.216619
C282  C     C_3   0.729122 0.155811 0.576400 -0.927220
H320  H     H_    0.718861 0.180975 0.597410 0.262850
H321  H     H_    0.723250 0.198606 0.559990 0.267215
H322  H     H_    0.785834 0.134154 0.575638 0.255889
O111  O     O_3   0.023089 0.369405 0.587664 -0.569073
C283  C     C_3   0.096245 0.345825 0.591590 0.116241
H323  H     H_    0.096375 0.285164 0.591416 0.156985
H324  H     H_    0.120174 0.362548 0.612245 0.170565
C284  C     C_3   0.144866 0.372655 0.567394 -0.359527
H325  H     H_    0.123034 0.352127 0.547025 0.251448
H326  H     H_    0.144704 0.433315 0.566956 0.206563
C285  C     C_3   0.223398 0.345994 0.570688 -0.909241
H327  H     H_    0.246968 0.366891 0.590705 0.261785
H328  H     H_    0.256946 0.366298 0.552798 0.267155
H329  H     H_    0.225383 0.285361 0.570688 0.256982
O112  O     O_3   0.368360 0.025766 0.586997 -0.570610
C286  C     C_3   0.317808 0.969151 0.592961 0.120777
H330  H     H_    0.262017 0.992755 0.591355 0.152779
H331  H     H_    0.322335 0.946520 0.614703 0.177493
C287  C     C_3   0.324938 0.906962 0.571421 -0.349391
H332  H     H_    0.314965 0.928503 0.549861 0.243107
H333  H     H_    0.381044 0.883738 0.572206 0.216613
C288  C     C_3   0.270250 0.846211 0.577443 -0.927566
H334  H     H_    0.279985 0.822635 0.598693 0.262895
H335  H     H_    0.276618 0.802219 0.561443 0.267263
H336  H     H_    0.213527 0.867711 0.576399 0.255848

loop_
_geom_bond_atom_site_label_1
_geom_bond_atom_site_label_2
_ccdc_geom_bond_type
C224  C225  S    
C275  H305  S    
C246  H236  S    
C152  H18   S    
Cu4   O13   S    
C33   C45   A    
C242  H227  S    
C162  H40   S    
C120  C144  A    
C281  C282  S    
C90   O50   S    
O83   C199  S    
C188  C189  S    
C283  H323  S    
C266  H283  S    
C75   O21   A    
C280  H316  S    
C287  C288  S    
O105  C265  S    
C277  H310  S    
C142  O78   S    
C164  H46   S    
C89   O49   S    
C197  H122  S    
C262  H275  S    
C112  C124  A    
Cu11  O43   S    
C254  H256  S    
C260  C261  S    
C34   O106  S    
C150  H14   S    
C275  C276  S    
C251  H248  S    
C103  O63   S    
C22   C38   A    
O109  C277  S    
C119  C143  A    
O78   C184  S    
Cu8   O36   S    
C92   N2    A    
C157  H29   S    
C93   N3    A    
C5    O15   A    
C91   O51   S    
C181  H86   S    
C265  C266  S    
C192  H111  S    
C13   C51   A    
O103  C259  S    
C233  C234  S    
C14   C52   A    
O111  C283  S    
C185  H95   S    
C279  H313  S    
C277  C278  S    
C95   O55   S    
C243  H231  S    
C49   N4    S    
C27   O99   S    
C241  H225  S    
C15   C51   A    
C97   C115  A    
C157  H30   S    
Cu5   O39   S    
C76   O24   A    
C185  C186  S    
C258  H266  S    
C23   C55   A    
C261  H271  S    
C88   O46   A    
C265  H282  S    
C103  C117  A    
Cu7   O37   S    
C259  C260  S    
C183  H89   S    
C98   N6    A    
C271  H296  S    
Cu1   Cu2   S    
C198  H126  S    
C217  H170  S    
Cu1   O2    S    
C43   C75   S    
C80   O32   A    
C167  H53   S    
C23   O95   S    
C109  C133  A    
C236  H213  S    
C161  C162  S    
C18   O90   S    
C186  H96   S    
C245  H234  S    
C121  C128  A    
C20   C54   A    
C95   C109  A    
C184  C185  S    
C25   C41   A    
C174  H69   S    
Cu3   O12   S    
C3    O5    A    
C123  C126  A    
C22   C56   A    
C6    O10   A    
C96   O56   S    
C1    O7    A    
C4    O4    A    
C187  H100  S    
C101  C119  A    
C6    C63   S    
C276  H308  S    
C204  H138  S    
C239  H220  S    
C11   C49   A    
Cu6   Cu8   S    
C66   C82   S    
C218  C219  S    
C73   O17   A    
C8    O16   A    
C11   C27   A    
C240  H224  S    
C241  C242  S    
C248  H242  S    
O72   C166  S    
C100  C114  A    
C96   N4    A    
C228  H195  S    
C143  O79   S    
C211  H155  S    
C264  H280  S    
C89   N1    A    
C211  C212  S    
C40   O112  S    
C163  H43   S    
C210  H153  S    
C63   C71   T    
Cu4   O15   S    
C249  H244  S    
C156  H27   S    
C256  H260  S    
C242  C243  S    
C193  H114  S    
C202  C203  S    
C273  H300  S    
O79   C187  S    
C35   C45   A    
C283  C284  S    
C212  H157  S    
C266  C267  S    
O90   C220  S    
C39   C47   A    
O104  C262  S    
C280  C281  S    
C13   C29   A    
C40   C48   A    
C21   O93   S    
C287  H332  S    
O70   C160  S    
C169  C170  S    
O92   C226  S    
C197  C198  S    
C12   O84   S    
C225  H188  S    
C245  H235  S    
C223  H183  S    
C131  O67   S    
C85   O45   A    
C104  N8    A    
C105  C129  A    
C260  H269  S    
C253  H253  S    
C82   O34   A    
C24   C56   A    
C249  H245  S    
C149  C150  S    
C61   C69   T    
C231  H201  S    
C273  H301  S    
C274  C275  S    
C159  H33   S    
C160  H37   S    
C13   O85   S    
C252  H250  S    
O82   C196  S    
C279  H315  S    
C244  H232  S    
C36   O108  S    
C195  H118  S    
C215  H164  S    
Cu12  O44   S    
C180  H82   S    
O80   C190  S    
C174  H68   S    
C28   O100  S    
C214  C215  S    
O110  C280  S    
Cu10  O46   S    
C170  H59   S    
C173  H67   S    
C246  H238  S    
C19   C35   A    
C148  H9    S    
C194  H115  S    
O81   C193  S    
C183  H91   S    
C17   O89   S    
C151  H15   S    
Cu1   O4    S    
C226  C227  S    
C205  H142  S    
C67   C83   S    
C91   C105  A    
Cu3   Cu4   S    
C175  C176  S    
C257  H262  S    
C192  H110  S    
Cu3   O10   S    
C85   O41   A    
C200  H130  S    
C129  C144  A    
Cu9   O25   S    
C208  H148  S    
C149  H10   S    
C7    O13   A    
C165  H47   S    
C171  H63   S    
C31   C43   A    
C95   N3    A    
C101  O61   S    
C195  H117  S    
C162  H41   S    
C281  H319  S    
C227  H192  S    
Cu5   Cu7   S    
C114  C126  A    
C258  H264  S    
C168  H55   S    
C205  C206  S    
C74   O20   A    
C181  H85   S    
C20   O92   S    
C79   O31   A    
C147  H5    S    
C215  C216  S    
C93   O53   S    
C148  H8    S    
C122  C127  A    
C44   C76   S    
C135  O71   S    
C62   C70   T    
C169  H58   S    
C59   C67   T    
C235  C236  S    
C200  H129  S    
C219  H174  S    
C207  H145  S    
C138  O74   S    
C256  C257  S    
C218  H172  S    
C36   C46   A    
C34   C46   A    
C54   N7    S    
C37   C47   A    
C146  H3    S    
C38   C48   A    
C233  H207  S    
C222  H182  S    
C158  H31   S    
C268  H289  S    
C39   O111  S    
O97   C241  S    
C112  C136  A    
C223  C224  S    
C137  O73   S    
C196  H121  S    
O65   C145  S    
C255  H258  S    
C278  H312  S    
C182  H88   S    
C32   C44   A    
C99   O59   S    
C220  H177  S    
C133  O69   S    
C231  H203  S    
C9    C49   A    
C173  H66   S    
C259  H268  S    
C182  C183  S    
C32   O104  S    
C134  C139  A    
C106  C130  A    
C209  H150  S    
C186  H98   S    
C263  C264  S    
C244  H233  S    
C26   O98   S    
O107  C271  S    
C236  H214  S    
C161  H39   S    
C204  H140  S    
C11   O83   S    
C230  H199  S    
C136  O72   S    
C18   C34   A    
C177  H76   S    
C214  H162  S    
C170  C171  S    
C16   O88   S    
C106  C122  A    
C150  H13   S    
C250  H247  S    
C253  C254  S    
C194  C195  S    
C216  H167  S    
C9    O81   S    
C155  H25   S    
C252  H252  S    
C151  C152  S    
Cu9   O41   S    
C207  H146  S    
O88   C214  S    
C97   N5    A    
C281  H318  S    
C176  H74   S    
C286  C287  S    
C263  H277  S    
C110  C134  A    
Cu9   Cu11  S    
O91   C223  S    
C257  C258  S    
C192  H112  S    
C69   C85   S    
C199  H127  S    
C26   C42   A    
C177  H77   S    
C132  O68   S    
C208  C209  S    
C132  C141  A    
C224  H186  S    
C29   O101  S    
C237  H215  S    
C238  C239  S    
C94   N4    A    
C4    O8    A    
C239  C240  S    
C139  O75   S    
C156  H28   S    
C87   O47   A    
C195  H119  S    
Cu8   O40   S    
O74   C172  S    
C258  H265  S    
C155  C156  S    
C283  H324  S    
Cu6   O22   S    
C12   C50   A    
C255  H259  S    
Cu7   O19   S    
O68   C154  S    
C175  H72   S    
C16   C32   A    
C22   O94   S    
C79   O29   A    
C219  H175  S    
C148  C149  S    
C77   O25   A    
C33   O105  S    
C197  H123  S    
C153  H19   S    
C90   C108  A    
C165  H48   S    
C254  H255  S    
C171  H62   S    
C282  H322  S    
C19   O91   S    
C260  H270  S    
C178  H79   S    
C251  H249  S    
C207  H147  S    
C98   O58   S    
C235  H212  S    
O66   C148  S    
C172  C173  S    
C149  H11   S    
C191  H109  S    
C114  C138  A    
C213  H159  S    
C164  C165  S    
C185  H94   S    
C108  C132  A    
C225  H187  S    
C41   C73   S    
C285  H328  S    
C284  C285  S    
C209  H151  S    
C179  H80   S    
C158  C159  S    
C37   O109  S    
C45   C77   S    
C38   O110  S    
C203  H136  S    
O89   C217  S    
C203  H137  S    
C181  C182  S    
C29   C43   A    
C222  H180  S    
C221  H178  S    
C237  H217  S    
C119  C127  A    
O75   C175  S    
C154  C155  S    
C157  C158  S    
C171  H61   S    
C173  C174  S    
Cu8   O24   S    
C269  H291  S    
C183  H90   S    
C201  H131  S    
C140  O76   S    
C9    C25   A    
O67   C151  S    
C270  H293  S    
Cu1   O1    S    
C198  H124  S    
C269  H290  S    
C229  H197  S    
C12   C28   A    
C141  O77   S    
C267  H285  S    
Cu12  O32   S    
C88   O44   A    
C230  C231  S    
C184  H93   S    
C81   O33   A    
C120  C128  A    
C190  C191  S    
Cu3   O11   S    
Cu12  O48   S    
C84   O38   A    
C10   O82   S    
C102  O62   S    
C268  H288  S    
C206  H144  S    
C118  C142  A    
O84   C202  S    
C239  H221  S    
C110  C124  A    
C99   N5    A    
C248  H241  S    
C240  H223  S    
Cu4   O14   S    
C286  H330  S    
C245  C246  S    
C104  O64   S    
C227  C228  S    
C264  H279  S    
C234  H210  S    
C2    O2    A    
Cu10  Cu12  S    
C269  C270  S    
C3    C60   S    
C163  H44   S    
C275  H304  S    
Cu10  O26   S    
C152  C153  S    
C238  H218  S    
Cu4   O16   S    
C202  H134  S    
C228  H194  S    
C6    O14   A    
Cu5   O17   S    
C253  H254  S    
C242  H228  S    
C261  H273  S    
C30   C44   A    
C17   C33   A    
C215  H165  S    
C266  H284  S    
C147  H7    S    
C104  C118  A    
O76   C178  S    
C280  H317  S    
C35   O107  S    
C287  H333  S    
C248  C249  S    
C42   C74   S    
C277  H309  S    
C3    O3    A    
C166  H50   S    
C77   O27   A    
C262  C263  S    
C78   O28   A    
C285  H327  S    
C223  H184  S    
C254  C255  S    
C108  C122  A    
O71   C163  S    
C46   C78   S    
O98   C244  S    
C81   O37   A    
C188  H102  S    
O96   C238  S    
C111  C123  A    
C56   N5    S    
C144  O80   S    
C274  H302  S    
C199  C200  S    
C68   C84   S    
C194  H116  S    
C117  C141  A    
C234  H208  S    
C274  H303  S    
C160  H36   S    
C65   C81   S    
C270  H292  S    
Cu9   O31   S    
C101  N7    A    
C89   C107  A    
C8    O12   A    
C175  H71   S    
C15   C31   A    
C117  C127  A    
C93   C111  A    
C221  C222  S    
C74   O18   A    
C83   O39   A    
O106  C268  S    
C214  H163  S    
C30   O102  S    
Cu5   O23   S    
C246  H237  S    
C265  H281  S    
O112  C286  S    
C107  C121  A    
C10   C50   A    
C17   C53   A    
C282  H320  S    
C102  C120  A    
C271  H295  S    
C151  H16   S    
O101  C253  S    
Cu1   O3    S    
C52   N1    S    
C226  H191  S    
C167  H52   S    
C220  C221  S    
C2    C59   S    
C103  N7    A    
C267  H287  S    
C75   O23   A    
C16   C52   A    
C57   C65   T    
C257  H263  S    
C99   C113  A    
C174  H70   S    
C189  H104  S    
C190  H106  S    
Cu3   O9    S    
C53   N8    S    
C189  H103  S    
C86   O48   A    
C50   N3    S    
C160  C161  S    
C51   N2    S    
C178  C179  S    
C211  H156  S    
C113  C137  A    
C166  C167  S    
C31   O103  S    
C272  H298  S    
C212  C213  S    
C111  C135  A    
C168  H54   S    
C96   C110  A    
C73   O19   A    
Cu11  O45   S    
C247  H239  S    
C147  H6    S    
C92   O52   S    
C145  H1    S    
C91   N1    A    
C20   C36   A    
C210  H154  S    
C21   C37   A    
O86   C208  S    
C60   C68   T    
C133  C140  A    
C15   O87   S    
C249  H243  S    
C228  H196  S    
C250  H246  S    
C256  H261  S    
C193  H113  S    
C136  C137  A    
C182  H87   S    
C273  H299  S    
C184  H92   S    
Cu6   O34   S    
C231  H202  S    
C167  C168  S    
C276  H307  S    
C135  C138  A    
C176  H73   S    
C234  H209  S    
C279  H314  S    
O108  C274  S    
Cu2   O8    S    
C222  H181  S    
C206  C207  S    
C172  H64   S    
C262  H274  S    
C78   O26   A    
C47   C79   S    
O87   C211  S    
C5    O9    A    
C187  H99   S    
C86   O42   A    
C189  H105  S    
C196  H120  S    
C224  H185  S    
C278  H311  S    
C219  H173  S    
C165  H49   S    
C130  O66   S    
C220  H176  S    
C232  H204  S    
O73   C169  S    
C145  C146  S    
C134  O70   S    
O94   C232  S    
C159  H34   S    
C288  H334  S    
C232  C233  S    
C252  H251  S    
C23   C39   A    
C186  H97   S    
C113  C125  A    
C100  O60   S    
C226  H190  S    
Cu2   O6    S    
C129  O65   S    
C94   O54   S    
C156  H26   S    
C285  H329  S    
C218  H171  S    
C94   C112  A    
C204  H139  S    
O95   C235  S    
C58   C66   T    
C284  H325  S    
C198  H125  S    
C193  C194  S    
C7    O11   A    
C4    C57   S    
C196  C197  S    
Cu8   O20   S    
C216  H166  S    
C227  H193  S    
C271  C272  S    
C8    C61   S    
C10   C26   A    
C64   C72   T    
C205  H141  S    
C116  C126  A    
C286  H331  S    
C191  C192  S    
C206  H143  S    
C118  C128  A    
C14   C30   A    
C159  H35   S    
C247  H240  S    
C72   C88   S    
C199  H128  S    
C200  C201  S    
C208  H149  S    
C237  H216  S    
C238  H219  S    
C201  H133  S    
Cu7   O35   S    
C162  H42   S    
C243  H229  S    
C107  C131  A    
C272  C273  S    
O99   C247  S    
Cu9   O47   S    
C164  H45   S    
C209  C210  S    
C168  H56   S    
C202  H135  S    
C163  C164  S    
C213  H161  S    
C170  H60   S    
O93   C229  S    
C276  H306  S    
C247  C248  S    
C243  H230  S    
C288  H335  S    
C180  H83   S    
C153  H20   S    
C169  H57   S    
Cu11  O29   S    
C90   N2    A    
C282  H321  S    
C146  C147  S    
C27   C41   A    
C98   C116  A    
C210  H152  S    
C1    O1    A    
C145  H2    S    
O69   C157  S    
C172  H65   S    
C105  C121  A    
C232  H205  S    
C213  H160  S    
C130  C143  A    
C146  H4    S    
C87   O43   A    
Cu10  O42   S    
C131  C142  A    
Cu11  O27   S    
Cu12  O28   S    
C102  N8    A    
C233  H206  S    
C284  H326  S    
C2    O6    A    
O85   C205  S    
C179  H81   S    
C158  H32   S    
C288  H336  S    
C268  C269  S    
C71   C87   S    
Cu2   O5    S    
C153  H21   S    
C25   O97   S    
C83   O35   A    
C152  H17   S    
C70   C86   S    
C187  C188  S    
C244  C245  S    
C76   O22   A    
C255  H257  S    
C221  H179  S    
C278  C279  S    
C92   C106  A    
C272  H297  S    
C217  H169  S    
C235  H211  S    
C21   C55   A    
C263  H276  S    
C270  H294  S    
C55   N6    S    
C115  C139  A    
C259  H267  S    
Cu6   O18   S    
C225  H189  S    
C14   O86   S    
C201  H132  S    
C150  H12   S    
C180  H84   S    
C179  C180  S    
C80   O30   A    
O77   C181  S    
C229  H198  S    
C212  H158  S    
C115  C125  A    
C241  H226  S    
C236  C237  S    
C217  C218  S    
C161  H38   S    
C48   C80   S    
C203  C204  S    
C267  H286  S    
C166  H51   S    
Cu7   O21   S    
C154  H23   S    
C1    C58   S    
C82   O40   A    
C190  H107  S    
C178  H78   S    
C19   C53   A    
C177  H75   S    
C154  H22   S    
C28   C42   A    
C24   C40   A    
C97   O57   S    
C5    C62   S    
C250  C251  S    
C261  H272  S    
C84   O36   A    
O100  C250  S    
C216  H168  S    
C7    C64   S    
C100  N6    A    
C155  H24   S    
C18   C54   A    
Cu10  O30   S    
C230  H200  S    
C229  C230  S    
C24   O96   S    
C240  H222  S    
C176  C177  S    
Cu6   O38   S    
C191  H108  S    
O102  C256  S    
C109  C123  A    
C264  H278  S    
Cu2   O7    S    
C251  C252  S    
C188  H101  S    
Cu5   O33   S    
C124  C125  A    
C116  C140  A    
