data_mof_unit_3188.cif
_audit_creation_date              2012-12-10T22:16:27-0500
_audit_creation_method            fapswitch 2.2
_symmetry_space_group_name_H-M    P1
_symmetry_Int_Tables_number       1
_space_group_crystal_system       triclinic
_cell_length_a                    27.221002
_cell_length_b                    27.19677
_cell_length_c                    27.309551
_cell_angle_alpha                 89.931828
_cell_angle_beta                  89.876677
_cell_angle_gamma                 89.99397
_cell_volume                      20217.8365022

loop_
_atom_site_label
_atom_site_type_symbol
_atom_type_description
_atom_site_fract_x
_atom_site_fract_y
_atom_site_fract_z
_atom_type_partial_charge
C1    C     C_R   0.572155 0.296327 0.296350 0.898059
C2    C     C_R   0.427879 0.296260 0.296067 0.887027
C3    C     C_R   0.179356 0.884243 0.319976 -0.140714
C4    C     C_R   0.319551 0.116492 0.818780 -0.147235
C5    C     C_R   0.680715 0.884007 0.180347 -0.145793
C6    C     C_R   0.176530 0.113019 0.324042 -0.139970
C7    C     C_R   0.820863 0.886183 0.677360 -0.131218
C8    C     C_R   0.679222 0.886479 0.823139 -0.135881
C9    C     C_R   0.321479 0.114371 0.179290 -0.144521
C10   C     C_R   0.818040 0.883417 0.319212 -0.146279
C11   C     C_R   0.181316 0.117425 0.682326 -0.148613
C12   C     C_R   0.321682 0.885328 0.178694 -0.147096
C13   C     C_R   0.703271 0.703050 0.428682 0.898705
C14   C     C_R   0.678253 0.114044 0.821155 -0.129946
C15   C     C_R   0.177431 0.885821 0.676883 -0.155206
C16   C     C_R   0.820000 0.114779 0.321252 -0.136629
C17   C     C_R   0.886356 0.822822 0.676654 -0.141535
C18   C     C_R   0.113126 0.178615 0.323505 -0.132197
C19   C     C_R   0.883053 0.319157 0.817722 -0.146745
C20   C     C_R   0.117258 0.681972 0.180374 -0.152794
C21   C     C_R   0.883819 0.179928 0.320104 -0.142022
C22   C     C_R   0.113575 0.820577 0.677521 -0.132454
C23   C     C_R   0.886772 0.677028 0.176749 -0.155193
C24   C     C_R   0.296703 0.296735 0.571531 0.890014
C25   C     C_R   0.113758 0.323010 0.823411 -0.144305
C26   C     C_R   0.114471 0.178591 0.679442 -0.145818
C27   C     C_R   0.883589 0.820726 0.320026 -0.143548
C28   C     C_R   0.114126 0.679363 0.822591 -0.134364
C29   C     C_R   0.886248 0.320694 0.178412 -0.148199
C30   C     C_R   0.116801 0.818448 0.318946 -0.148665
C31   C     C_R   0.883276 0.180464 0.681374 -0.146449
C32   C     C_R   0.113118 0.321223 0.176718 -0.134274
C33   C     C_R   0.886075 0.678865 0.820711 -0.144451
C34   C     C_R   0.178934 0.322337 0.886559 -0.148085
C35   C     C_R   0.428002 0.703610 0.296218 0.890126
C36   C     C_R   0.820345 0.678788 0.114537 -0.133849
C37   C     C_R   0.676193 0.175850 0.887856 -0.158242
C38   C     C_R   0.321887 0.820657 0.114336 -0.136312
C39   C     C_R   0.823485 0.677571 0.886543 -0.139025
C40   C     C_R   0.177638 0.321254 0.113264 -0.148898
C41   C     C_R   0.321092 0.819908 0.885342 -0.141961
C42   C     C_R   0.679963 0.179535 0.115149 -0.147415
C43   C     C_R   0.822931 0.320722 0.113932 -0.129610
C44   C     C_R   0.180405 0.681034 0.884119 -0.147801
C45   C     C_R   0.320397 0.179857 0.115849 -0.139393
C46   C     C_R   0.571300 0.296769 0.703071 0.895439
C47   C     C_R   0.680191 0.820770 0.885420 -0.147254
C48   C     C_R   0.178312 0.679187 0.113909 -0.137471
C49   C     C_R   0.820374 0.320137 0.883397 -0.141527
C50   C     C_R   0.679382 0.821793 0.114550 -0.135618
C51   C     C_R   0.320281 0.179383 0.884331 -0.140769
C52   C     C_R   0.180408 0.616346 0.179794 -0.142755
C53   C     C_R   0.821789 0.385408 0.819675 -0.134426
C54   C     C_R   0.820617 0.614414 0.178110 -0.143234
C55   C     C_R   0.179048 0.386717 0.823023 -0.134262
C56   C     C_R   0.822192 0.614716 0.820700 -0.144662
C57   C     C_R   0.296802 0.703268 0.571654 0.899793
C58   C     C_R   0.176882 0.386455 0.176401 -0.142395
C59   C     C_R   0.179764 0.616002 0.821093 -0.141526
C60   C     C_R   0.823945 0.386653 0.176783 -0.141300
C61   C     C_R   0.384981 0.820060 0.179344 -0.146789
C62   C     C_R   0.613652 0.177687 0.821778 -0.141360
C63   C     C_R   0.385350 0.819895 0.821762 -0.130079
C64   C     C_R   0.614282 0.178434 0.178040 -0.148943
C65   C     C_R   0.386009 0.178102 0.821073 -0.145420
C66   C     C_R   0.615239 0.821141 0.179476 -0.144766
C67   C     C_R   0.383098 0.180762 0.181545 -0.147868
C68   C     C_R   0.703930 0.296218 0.427805 0.886565
C69   C     C_R   0.615232 0.821265 0.822217 -0.145504
C70   C     C_R   0.178496 0.820643 0.385263 -0.145511
C71   C     C_R   0.820255 0.179789 0.615987 -0.144014
C72   C     C_R   0.177739 0.178473 0.386806 -0.149859
C73   C     C_R   0.820800 0.821555 0.614036 -0.147515
C74   C     C_R   0.818242 0.180775 0.382935 -0.147978
C75   C     C_R   0.177978 0.820495 0.613930 -0.146475
C76   C     C_R   0.819961 0.822131 0.385492 -0.136411
C77   C     C_R   0.180054 0.179946 0.616362 -0.145675
C78   C     C_R   0.679897 0.615286 0.679510 -0.143220
C79   C     C_R   0.702677 0.428954 0.702892 0.899324
C80   C     C_R   0.321500 0.385589 0.320631 -0.144824
C81   C     C_R   0.322439 0.613645 0.677543 -0.154088
C82   C     C_R   0.679486 0.385382 0.321269 -0.145033
C83   C     C_R   0.320419 0.615142 0.319782 -0.143582
C84   C     C_R   0.676666 0.387380 0.677555 -0.144511
C85   C     C_R   0.681268 0.616471 0.319898 -0.149737
C86   C     C_R   0.320997 0.386352 0.677217 -0.130597
C87   C     C_R   0.386610 0.323091 0.676444 -0.142496
C88   C     C_R   0.616542 0.680240 0.320107 -0.143642
C89   C     C_R   0.383073 0.319196 0.318303 -0.148931
C90   C     C_R   0.296338 0.571799 0.296415 0.884594
C91   C     C_R   0.613665 0.677606 0.677169 -0.151002
C92   C     C_R   0.384532 0.679170 0.319618 -0.128681
C93   C     C_R   0.614404 0.321171 0.679036 -0.142194
C94   C     C_R   0.385706 0.679181 0.678775 -0.134203
C95   C     C_R   0.615946 0.319990 0.320328 -0.139467
C96   C     C_R   0.681680 0.319057 0.382984 -0.147973
C97   C     C_R   0.321651 0.679183 0.614625 -0.143794
C98   C     C_R   0.678785 0.677761 0.386455 -0.140295
C99   C     C_R   0.321039 0.321791 0.613836 -0.148175
C100  C     C_R   0.323048 0.676716 0.385998 -0.143489
C101  C     C_R   0.703653 0.571950 0.296408 0.891004
C102  C     C_R   0.678777 0.321102 0.615055 -0.146839
C103  C     C_R   0.320395 0.320224 0.384167 -0.140046
C104  C     C_R   0.680103 0.679405 0.615197 -0.141241
C105  C     C_R   0.702583 0.137161 0.136932 0.040844
C106  C     C_R   0.302000 0.865054 0.866396 0.033515
C107  C     C_R   0.862721 0.136904 0.702704 0.039340
C108  C     C_R   0.140270 0.859345 0.295668 0.031558
C109  C     C_R   0.296135 0.140046 0.859557 0.033517
C110  C     C_R   0.702435 0.863111 0.137102 0.043172
C111  C     C_R   0.131564 0.132791 0.305947 0.021411
C112  C     C_R   0.428424 0.703469 0.703432 0.896579
C113  C     C_R   0.296675 0.428672 0.702951 0.891563
C114  C     C_R   0.866653 0.867741 0.694805 0.022252
C115  C     C_R   0.701771 0.864593 0.865078 0.054224
C116  C     C_R   0.302175 0.134328 0.134613 0.028567
C117  C     C_R   0.858606 0.859577 0.295610 0.031603
C118  C     C_R   0.137648 0.137804 0.703260 0.042046
C119  C     C_R   0.302493 0.865456 0.134114 0.020851
C120  C     C_R   0.696392 0.131969 0.866827 0.028936
C121  C     C_R   0.132470 0.866154 0.695185 0.027185
C122  C     C_R   0.865227 0.134110 0.302425 0.015965
C123  C     C_R   0.859165 0.295695 0.858319 0.028470
C124  C     C_R   0.296718 0.571846 0.703270 0.896968
C125  C     C_R   0.136636 0.702398 0.136030 0.045069
C126  C     C_R   0.865913 0.697387 0.133171 0.025320
C127  C     C_R   0.134118 0.302919 0.866901 0.024662
C128  C     C_R   0.136460 0.702211 0.864051 0.050675
C129  C     C_R   0.862807 0.296602 0.137948 0.042698
C130  C     C_R   0.135754 0.298078 0.135473 0.050199
C131  C     C_R   0.866767 0.697986 0.865752 0.034099
C132  C     C_R   0.198120 0.634440 0.133734 0.026536
C133  C     C_R   0.803855 0.366502 0.865226 0.026701
C134  C     C_R   0.866091 0.633111 0.196439 0.032593
C135  C     C_R   0.703499 0.428330 0.296625 0.904206
C136  C     C_R   0.133549 0.367837 0.805195 0.024993
C137  C     C_R   0.805295 0.632826 0.866900 0.024857
C138  C     C_R   0.197207 0.366020 0.133044 0.024255
C139  C     C_R   0.133303 0.633982 0.804792 0.024295
C140  C     C_R   0.867216 0.366185 0.197127 0.024250
C141  C     C_R   0.202054 0.364248 0.864422 0.050718
C142  C     C_R   0.796604 0.638052 0.137952 0.036671
C143  C     C_R   0.862803 0.362840 0.796256 0.043712
C144  C     C_R   0.142367 0.642640 0.204472 0.024605
C145  C     C_R   0.805905 0.366937 0.131924 0.023312
C146  C     C_R   0.296772 0.428442 0.296606 0.905318
C147  C     C_R   0.204131 0.640519 0.860228 0.034552
C148  C     C_R   0.131933 0.366769 0.194560 0.025394
C149  C     C_R   0.862804 0.638068 0.796981 0.041745
C150  C     C_R   0.363084 0.862554 0.201416 0.041004
C151  C     C_R   0.637908 0.138125 0.797415 0.033815
C152  C     C_R   0.361523 0.795794 0.861861 0.040536
C153  C     C_R   0.637194 0.201463 0.136715 0.043132
C154  C     C_R   0.363720 0.136557 0.798073 0.042688
C155  C     C_R   0.639017 0.861288 0.203185 0.035082
C156  C     C_R   0.359642 0.204063 0.140664 0.033256
C157  C     C_R   0.703575 0.571812 0.703557 0.895394
C158  C     C_R   0.638525 0.797868 0.862753 0.040364
C159  C     C_R   0.634105 0.133591 0.197139 0.020094
C160  C     C_R   0.367556 0.866431 0.805231 0.025637
C161  C     C_R   0.631895 0.195501 0.867487 0.037602
C162  C     C_R   0.363723 0.797880 0.136516 0.044253
C163  C     C_R   0.633915 0.867186 0.805216 0.024374
C164  C     C_R   0.362688 0.136933 0.202515 0.041884
C165  C     C_R   0.634232 0.802991 0.134040 0.020627
C166  C     C_R   0.365872 0.197569 0.865625 0.029745
C167  C     C_R   0.137518 0.797065 0.362325 0.040652
C168  C     C_R   0.072122 0.796118 0.296145 0.887102
C169  C     C_R   0.859811 0.203734 0.640462 0.034177
C170  C     C_R   0.196838 0.133263 0.367320 0.027624
C171  C     C_R   0.797292 0.862681 0.636947 0.045310
C172  C     C_R   0.859144 0.204031 0.359328 0.032071
C173  C     C_R   0.135943 0.797528 0.636052 0.049003
C174  C     C_R   0.796636 0.863300 0.362985 0.043060
C175  C     C_R   0.205007 0.141809 0.642402 0.027652
C176  C     C_R   0.865776 0.802287 0.633468 0.025955
C177  C     C_R   0.136539 0.202137 0.363955 0.048285
C178  C     C_R   0.802149 0.134172 0.634799 0.022057
C179  C     C_R   0.927948 0.203607 0.703759 0.885504
C180  C     C_R   0.197503 0.865629 0.365434 0.029551
C181  C     C_R   0.134112 0.197647 0.634470 0.030090
C182  C     C_R   0.865504 0.804345 0.366386 0.027383
C183  C     C_R   0.198020 0.864745 0.633828 0.034120
C184  C     C_R   0.796768 0.137328 0.362389 0.044836
C185  C     C_R   0.704273 0.639783 0.639791 0.035596
C186  C     C_R   0.302252 0.365851 0.365513 0.028956
C187  C     C_R   0.366384 0.634076 0.697686 0.021633
C188  C     C_R   0.634818 0.365351 0.301928 0.027630
C189  C     C_R   0.303257 0.632861 0.366094 0.017991
C190  C     C_R   0.703561 0.796673 0.071764 0.898353
C191  C     C_R   0.697105 0.366843 0.633734 0.022694
C192  C     C_R   0.642375 0.641957 0.295508 0.025935
C193  C     C_R   0.366798 0.367935 0.694663 0.023538
C194  C     C_R   0.702817 0.362728 0.362439 0.042882
C195  C     C_R   0.302140 0.634561 0.634076 0.029807
C196  C     C_R   0.362617 0.362899 0.297167 0.043974
C197  C     C_R   0.634327 0.634148 0.697816 0.030353
C198  C     C_R   0.297464 0.362871 0.636783 0.045893
C199  C     C_R   0.701071 0.635270 0.364839 0.056023
C200  C     C_R   0.632715 0.366760 0.698452 0.069029
C201  C     C_R   0.296418 0.203534 0.927951 0.897285
C202  C     C_R   0.359093 0.640483 0.294861 0.038721
C203  C     C_R   0.359583 0.295961 0.359204 0.029805
C204  C     C_R   0.634451 0.697818 0.633523 0.030236
C205  C     C_R   0.362739 0.702399 0.637634 0.042216
C206  C     C_R   0.640741 0.295800 0.359643 0.033607
C207  C     C_R   0.634397 0.697689 0.366246 0.022596
C208  C     C_R   0.366136 0.302670 0.633175 0.025656
C209  C     C_R   0.638722 0.297131 0.639128 0.032125
C210  C     C_R   0.367348 0.695450 0.366009 0.024334
C211  C     C_3   0.750293 0.115571 0.113652 -0.235310
C212  C     C_R   0.928113 0.796856 0.703196 0.891188
C213  C     C_3   0.738327 0.082438 0.069749 -0.809672
C214  C     C_3   0.258674 0.890503 0.892165 -0.248345
C215  C     C_3   0.209020 0.869733 0.874782 -0.791120
C216  C     C_3   0.887613 0.114075 0.748714 -0.236872
C217  C     C_3   0.932615 0.083155 0.734407 -0.808534
C218  C     C_3   0.122413 0.877431 0.245106 -0.253902
C219  C     C_3   0.081666 0.916257 0.250512 -0.781937
C220  C     C_3   0.246074 0.121333 0.878355 -0.246415
C221  C     C_3   0.253160 0.080338 0.916491 -0.795967
C222  C     C_3   0.748923 0.887575 0.114492 -0.239226
C223  C     C_R   0.703439 0.296636 0.572140 0.886604
C224  C     C_R   0.071182 0.203234 0.297241 0.894905
C225  C     C_3   0.735107 0.932155 0.082745 -0.810928
C226  C     C_3   0.105697 0.107129 0.264152 -0.277764
C227  C     C_3   0.125498 0.127761 0.215370 -0.749247
C228  C     C_3   0.892440 0.893762 0.736370 -0.276405
C229  C     C_3   0.872047 0.874296 0.785306 -0.753781
C230  C     C_3   0.746455 0.888905 0.891285 -0.253052
C231  C     C_3   0.729943 0.917714 0.936398 -0.832844
C232  C     C_3   0.258812 0.109376 0.108643 -0.247422
C233  C     C_3   0.209231 0.130011 0.126528 -0.804578
C234  C     C_3   0.877628 0.878113 0.245571 -0.251056
C235  C     C_R   0.296579 0.796413 0.928374 0.899770
C236  C     C_3   0.916200 0.918949 0.252134 -0.786228
C237  C     C_3   0.115983 0.114382 0.750509 -0.232014
C238  C     C_3   0.081921 0.071257 0.738054 -0.815586
C239  C     C_3   0.256296 0.887902 0.111364 -0.222297
C240  C     C_3   0.209827 0.863652 0.133829 -0.793638
C241  C     C_3   0.741948 0.108045 0.889212 -0.239704
C242  C     C_3   0.789165 0.129132 0.865485 -0.800076
C243  C     C_3   0.106170 0.892474 0.736382 -0.282058
C244  C     C_3   0.124908 0.872502 0.785480 -0.759332
C245  C     C_3   0.890286 0.109451 0.258490 -0.235003
C246  C     C_R   0.703340 0.203337 0.071570 0.893240
C247  C     C_3   0.870107 0.131033 0.209562 -0.787767
C248  C     C_3   0.876830 0.245185 0.876288 -0.248699
C249  C     C_3   0.918798 0.250784 0.913818 -0.767104
C250  C     C_3   0.111278 0.748512 0.113105 -0.238695
C251  C     C_3   0.066089 0.734112 0.082849 -0.819900
C252  C     C_3   0.888938 0.743018 0.109891 -0.229124
C253  C     C_3   0.865031 0.789867 0.131917 -0.799303
C254  C     C_3   0.109670 0.257758 0.889746 -0.229691
C255  C     C_3   0.130971 0.209997 0.866847 -0.783926
C256  C     C_3   0.112555 0.747324 0.889580 -0.244623
C257  C     C_R   0.071500 0.203184 0.703357 0.903544
C258  C     C_3   0.081428 0.731652 0.933494 -0.834503
C259  C     C_3   0.884063 0.247958 0.117249 -0.244291
C260  C     C_3   0.925410 0.258016 0.080577 -0.810852
C261  C     C_3   0.113188 0.251391 0.111343 -0.239865
C262  C     C_3   0.080813 0.264747 0.067596 -0.830376
C263  C     C_3   0.891815 0.740909 0.891930 -0.258126
C264  C     C_3   0.871131 0.790093 0.873772 -0.797516
C265  C     C_3   0.244889 0.612113 0.111382 -0.222820
C266  C     C_3   0.290408 0.636118 0.135046 -0.819209
C267  C     C_3   0.761590 0.392046 0.891213 -0.274690
C268  C     C_R   0.927606 0.796370 0.296295 0.892389
C269  C     C_3   0.712670 0.371757 0.871283 -0.766785
C270  C     C_3   0.892098 0.606163 0.238259 -0.267236
C271  C     C_3   0.872689 0.622476 0.288614 -0.745801
C272  C     C_3   0.107396 0.393918 0.763853 -0.279974
C273  C     C_3   0.127525 0.374738 0.714833 -0.758245
C274  C     C_3   0.764375 0.606594 0.893944 -0.281468
C275  C     C_3   0.714774 0.626627 0.876015 -0.754624
C276  C     C_3   0.243143 0.390046 0.111026 -0.225043
C277  C     C_3   0.290344 0.368907 0.135114 -0.799561
C278  C     C_3   0.106471 0.607370 0.764003 -0.280288
C279  C     C_R   0.702689 0.202539 0.928773 0.889264
C280  C     C_3   0.124623 0.626930 0.714356 -0.761211
C281  C     C_3   0.889157 0.390441 0.242856 -0.226195
C282  C     C_3   0.864825 0.369646 0.290111 -0.801296
C283  C     C_3   0.248238 0.387127 0.889112 -0.240546
C284  C     C_3   0.234053 0.418684 0.933280 -0.832812
C285  C     C_3   0.747601 0.616467 0.118249 -0.237571
C286  C     C_3   0.757244 0.574558 0.081914 -0.810837
C287  C     C_3   0.888499 0.386464 0.750948 -0.240442
C288  C     C_3   0.933105 0.416940 0.767017 -0.816900
C289  C     C_3   0.129150 0.629844 0.258327 -0.245625
C290  C     C_R   0.296730 0.796431 0.071726 0.894634
C291  C     C_3   0.087205 0.590374 0.261052 -0.722466
C292  C     C_3   0.764654 0.393103 0.105621 -0.283031
C293  C     C_3   0.715417 0.373034 0.124790 -0.753374
C294  C     C_3   0.253775 0.620873 0.879501 -0.254739
C295  C     C_3   0.245856 0.582953 0.920520 -0.781238
C296  C     C_3   0.106052 0.392640 0.236281 -0.279230
C297  C     C_3   0.125659 0.372150 0.285021 -0.755774
C298  C     C_3   0.883887 0.614632 0.749336 -0.237773
C299  C     C_3   0.917894 0.571113 0.761383 -0.809153
C300  C     C_3   0.384697 0.885748 0.248675 -0.230033
C301  C     C_R   0.927725 0.203665 0.296193 0.888471
C302  C     C_3   0.419869 0.928074 0.237232 -0.813847
C303  C     C_3   0.618300 0.120144 0.747094 -0.243059
C304  C     C_3   0.576796 0.082325 0.753059 -0.797715
C305  C     C_3   0.381945 0.747401 0.884131 -0.250283
C306  C     C_3   0.417884 0.758691 0.925824 -0.802335
C307  C     C_3   0.614126 0.248969 0.114904 -0.229263
C308  C     C_3   0.572231 0.237814 0.079532 -0.824013
C309  C     C_3   0.387026 0.111119 0.752560 -0.236129
C310  C     C_3   0.417237 0.065931 0.767619 -0.817730
C311  C     C_3   0.617356 0.882334 0.251445 -0.237102
C312  C     C_R   0.071340 0.796519 0.703160 0.898670
C313  C     C_3   0.577650 0.920913 0.241081 -0.801458
C314  C     C_3   0.378486 0.254034 0.121871 -0.251871
C315  C     C_3   0.419814 0.246689 0.084067 -0.782968
C316  C     C_3   0.615742 0.750071 0.883933 -0.234247
C317  C     C_3   0.574847 0.761041 0.920840 -0.814127
C318  C     C_3   0.611202 0.110116 0.242917 -0.222950
C319  C     C_3   0.635183 0.131598 0.289902 -0.797823
C320  C     C_3   0.394568 0.893257 0.764775 -0.282766
C321  C     C_3   0.376548 0.873564 0.715337 -0.753517
C322  C     C_3   0.604789 0.237192 0.893772 -0.274987
C323  C     C_R   0.296377 0.203626 0.072127 0.897382
C324  C     C_3   0.623094 0.287497 0.876222 -0.770209
C325  C     C_3   0.388488 0.751483 0.113759 -0.242056
C326  C     C_3   0.433161 0.765578 0.082282 -0.811255
C327  C     C_3   0.607527 0.893459 0.763955 -0.275890
C328  C     C_3   0.627319 0.874691 0.714544 -0.761105
C329  C     C_3   0.387721 0.113989 0.248317 -0.239379
C330  C     C_3   0.432526 0.083103 0.233422 -0.807252
C331  C     C_3   0.610629 0.757881 0.110497 -0.228344
C332  C     C_3   0.633302 0.710590 0.132919 -0.803667
C333  C     C_3   0.390929 0.240880 0.891690 -0.249138
C334  C     C_R   0.296935 0.703162 0.427883 0.886071
C335  C     C_R   0.703372 0.796751 0.928701 0.904515
C336  C     C_3   0.370491 0.290535 0.873794 -0.803141
C337  C     C_3   0.113685 0.750038 0.384387 -0.238820
C338  C     C_3   0.069939 0.763246 0.417522 -0.807451
C339  C     C_3   0.878811 0.253631 0.621472 -0.250221
C340  C     C_3   0.919873 0.246558 0.583315 -0.784708
C341  C     C_3   0.242809 0.109063 0.389029 -0.231822
C342  C     C_3   0.290126 0.129715 0.364784 -0.801579
C343  C     C_3   0.749478 0.883854 0.614643 -0.241473
C344  C     C_3   0.760717 0.919489 0.572783 -0.817774
C345  C     C_3   0.877635 0.254079 0.377894 -0.250686
C346  C     C_R   0.203247 0.703473 0.071474 0.901217
C347  C     C_3   0.915413 0.247367 0.419321 -0.772394
C348  C     C_3   0.112656 0.751750 0.611024 -0.240722
C349  C     C_3   0.080348 0.766913 0.567951 -0.839809
C350  C     C_3   0.751243 0.888957 0.386599 -0.241987
C351  C     C_3   0.766906 0.933440 0.417361 -0.812856
C352  C     C_3   0.258610 0.128410 0.628283 -0.249660
C353  C     C_3   0.259846 0.088742 0.586838 -0.742184
C354  C     C_3   0.889454 0.756338 0.611314 -0.224613
C355  C     C_3   0.867498 0.709440 0.635266 -0.805724
C356  C     C_3   0.115423 0.250292 0.386084 -0.239010
C357  C     C_R   0.796257 0.296345 0.927518 0.886717
C358  C     C_3   0.080436 0.239752 0.428682 -0.822148
C359  C     C_3   0.756780 0.111027 0.611223 -0.226145
C360  C     C_3   0.709455 0.133915 0.633082 -0.796436
C361  C     C_3   0.240217 0.892482 0.390601 -0.255437
C362  C     C_3   0.290398 0.876327 0.369732 -0.775339
C363  C     C_3   0.108329 0.240059 0.607305 -0.252148
C364  C     C_3   0.128041 0.290474 0.623995 -0.792471
C365  C     C_3   0.892616 0.763484 0.393001 -0.279949
C366  C     C_3   0.874656 0.713059 0.374259 -0.738537
C367  C     C_3   0.241806 0.889964 0.608551 -0.242623
C368  C     C_R   0.203142 0.927964 0.703129 0.893415
C369  C     C_3   0.291247 0.868845 0.626272 -0.796630
C370  C     C_3   0.750651 0.114549 0.387319 -0.242310
C371  C     C_3   0.765418 0.083210 0.431771 -0.809357
C372  C     C_3   0.754623 0.621502 0.621351 -0.254085
C373  C     C_3   0.747660 0.580948 0.582911 -0.788708
C374  C     C_3   0.259435 0.391330 0.392246 -0.250744
C375  C     C_3   0.209417 0.371353 0.374947 -0.796240
C376  C     C_3   0.389240 0.611259 0.743478 -0.222908
C377  C     C_3   0.366475 0.634774 0.789931 -0.796276
C378  C     C_3   0.609169 0.389718 0.258032 -0.242423
C379  C     C_R   0.796278 0.071819 0.296463 0.903537
C380  C     C_3   0.627442 0.368009 0.209201 -0.809037
C381  C     C_3   0.259507 0.609054 0.391471 -0.241960
C382  C     C_3   0.211078 0.631029 0.370555 -0.747643
C383  C     C_3   0.743153 0.390188 0.611180 -0.223161
C384  C     C_3   0.790281 0.368477 0.635182 -0.805116
C385  C     C_3   0.628143 0.627913 0.242324 -0.253669
C386  C     C_3   0.587806 0.587023 0.241857 -0.740396
C387  C     C_3   0.392621 0.394015 0.736128 -0.278936
C388  C     C_3   0.372362 0.374647 0.785153 -0.754811
C389  C     C_3   0.748968 0.385368 0.387117 -0.239686
C390  C     C_R   0.203297 0.296858 0.928594 0.895428
C391  C     C_3   0.734262 0.416924 0.431348 -0.809460
C392  C     C_3   0.257939 0.610292 0.608820 -0.242288
C393  C     C_3   0.208788 0.632567 0.626233 -0.794539
C394  C     C_3   0.387457 0.385724 0.251050 -0.236651
C395  C     C_3   0.431811 0.417162 0.265749 -0.813784
C396  C     C_3   0.608846 0.609929 0.741915 -0.244518
C397  C     C_3   0.627358 0.631884 0.790357 -0.799318
C398  C     C_3   0.249552 0.383904 0.614538 -0.235440
C399  C     C_3   0.260610 0.419223 0.572352 -0.830482
C400  C     C_3   0.745530 0.608568 0.389093 -0.251532
C401  C     C_R   0.796288 0.703477 0.071788 0.898049
C402  C     C_3   0.729325 0.563089 0.417652 -0.836368
C403  C     C_3   0.604214 0.392449 0.741499 -0.286722
C404  C     C_3   0.556275 0.415298 0.724153 -0.865486
C405  C     C_3   0.376398 0.623671 0.243861 -0.267863
C406  C     C_3   0.418110 0.586524 0.247613 -0.769602
C407  C     C_3   0.377665 0.245578 0.377208 -0.248880
C408  C     C_3   0.419456 0.251776 0.414622 -0.775275
C409  C     C_3   0.608690 0.740707 0.607218 -0.252976
C410  C     C_3   0.628702 0.790866 0.624062 -0.794141
C411  C     C_3   0.383641 0.750418 0.615334 -0.233048
C412  C     C_R   0.202887 0.071563 0.297086 0.890739
C413  C     C_3   0.420150 0.739424 0.574286 -0.831245
C414  C     C_3   0.621912 0.245881 0.378631 -0.254828
C415  C     C_3   0.583989 0.253300 0.419794 -0.780291
C416  C     C_3   0.610377 0.742603 0.390116 -0.233338
C417  C     C_3   0.632002 0.790713 0.368069 -0.776366
C418  C     C_3   0.390095 0.256952 0.610899 -0.228182
C419  C     C_3   0.368372 0.209852 0.634743 -0.796256
C420  C     C_3   0.619290 0.247369 0.619587 -0.246840
C421  C     C_3   0.579585 0.254943 0.580624 -0.794801
C422  C     C_3   0.393857 0.736187 0.392592 -0.284437
C423  C     C_R   0.796636 0.928622 0.702997 0.895592
C424  C     C_3   0.374773 0.786083 0.374100 -0.747052
C425  C     C_R   0.797124 0.296596 0.071442 0.889102
C426  C     C_R   0.428222 0.296963 0.703105 0.890239
C427  C     C_R   0.203590 0.703608 0.928291 0.896241
C428  C     C_R   0.796536 0.071713 0.703697 0.903703
C429  C     C_R   0.203468 0.928032 0.296372 0.891186
C430  C     C_R   0.796961 0.703217 0.928303 0.897439
C431  C     C_R   0.203108 0.296778 0.071340 0.895211
C432  C     C_R   0.796140 0.928101 0.296302 0.893365
C433  C     C_R   0.203977 0.072351 0.704155 0.886790
C434  C     C_R   0.296709 0.928171 0.203309 0.886139
C435  C     C_R   0.703260 0.071516 0.796544 0.900183
C436  C     C_R   0.071190 0.296722 0.202834 0.895714
C437  C     C_R   0.572530 0.703891 0.296197 0.878140
C438  C     C_R   0.928697 0.703287 0.796593 0.906379
C439  C     C_R   0.703551 0.071694 0.203284 0.904867
C440  C     C_R   0.297001 0.928230 0.797058 0.891885
C441  C     C_R   0.928410 0.702947 0.202929 0.894847
C442  C     C_R   0.071963 0.296888 0.796820 0.893527
C443  C     C_R   0.703409 0.928605 0.797024 0.897537
C444  C     C_R   0.296718 0.071563 0.203429 0.903599
C445  C     C_R   0.927986 0.296269 0.795992 0.887832
C446  C     C_R   0.072249 0.703873 0.203644 0.881304
C447  C     C_R   0.296383 0.071997 0.796217 0.882731
C448  C     C_R   0.296456 0.296458 0.427953 0.894803
C449  C     C_R   0.703491 0.928253 0.203547 0.890562
C450  C     C_R   0.071559 0.703436 0.796886 0.895470
C451  C     C_R   0.928624 0.296676 0.203299 0.889391
C452  C     C_R   0.572129 0.796727 0.796730 0.887460
C453  C     C_R   0.427854 0.203726 0.203903 0.885081
C454  C     C_R   0.203134 0.796608 0.571409 0.905937
C455  C     C_R   0.796165 0.203716 0.427879 0.886018
C456  C     C_R   0.428521 0.796709 0.203293 0.892486
C457  C     C_R   0.571234 0.203006 0.796978 0.892841
C458  C     C_R   0.796280 0.796716 0.428244 0.901741
C459  C     C_R   0.703649 0.703494 0.571800 0.900057
C460  C     C_R   0.203683 0.203671 0.572250 0.889094
C461  C     C_R   0.571695 0.203171 0.203204 0.892840
C462  C     C_R   0.428203 0.796225 0.796561 0.896657
C463  C     C_R   0.203128 0.203102 0.428669 0.889967
C464  C     C_R   0.796626 0.796665 0.571586 0.894209
C465  C     C_R   0.428575 0.203132 0.796692 0.901424
C466  C     C_R   0.571967 0.796524 0.203534 0.884313
C467  C     C_R   0.796274 0.203649 0.572276 0.891728
C468  C     C_R   0.203233 0.796649 0.428298 0.897005
C469  C     C_R   0.203033 0.428164 0.203086 0.895686
C470  C     C_R   0.571658 0.703160 0.703019 0.904503
C471  C     C_R   0.796743 0.571898 0.796536 0.885097
C472  C     C_R   0.203572 0.572296 0.796448 0.886368
C473  C     C_R   0.797081 0.428344 0.202974 0.887806
C474  C     C_R   0.796638 0.571542 0.203176 0.887231
C475  C     C_R   0.203347 0.428785 0.797092 0.897993
C476  C     C_R   0.796596 0.428213 0.796181 0.901656
C477  C     C_R   0.203833 0.572341 0.203689 0.883694
C478  C     C_R   0.679323 0.114405 0.178223 -0.136230
C479  C     C_R   0.322664 0.886209 0.823416 -0.155163
C480  C     C_R   0.821296 0.114561 0.679699 -0.136756
H1    H     H_    0.723814 0.046892 0.083436 0.243507
H2    H     H_    0.259995 0.930606 0.890919 0.180189
H3    H     H_    0.069386 0.259680 0.890869 0.174491
H4    H     H_    0.046745 0.715273 0.920134 0.239467
H5    H     H_    0.100808 0.704189 0.956651 0.252538
H6    H     H_    0.072614 0.764223 0.956082 0.226844
H7    H     H_    0.138971 0.777187 0.895578 0.175487
H8    H     H_    0.092549 0.775845 0.870425 0.190698
H9    H     H_    0.910031 0.275206 0.047201 0.246124
H10   H     H_    0.953246 0.283143 0.096372 0.249969
H11   H     H_    0.943578 0.223137 0.070412 0.220844
H12   H     H_    0.892939 0.219987 0.144819 0.183284
H13   H     H_    0.920150 0.046602 0.721167 0.233905
H14   H     H_    0.858947 0.219523 0.103962 0.181242
H15   H     H_    0.046457 0.281695 0.081077 0.244019
H16   H     H_    0.099509 0.290931 0.042220 0.249457
H17   H     H_    0.071512 0.231155 0.046906 0.221614
H18   H     H_    0.140323 0.222118 0.105435 0.175123
H19   H     H_    0.094415 0.222586 0.131603 0.189100
H20   H     H_    0.842262 0.785253 0.846343 0.236151
H21   H     H_    0.854111 0.811252 0.903524 0.241556
H22   H     H_    0.900914 0.812385 0.858133 0.243728
H23   H     H_    0.892008 0.737504 0.932188 0.176799
H24   H     H_    0.954538 0.100704 0.704844 0.246476
H25   H     H_    0.932045 0.739411 0.891256 0.183020
H26   H     H_    0.301418 0.670108 0.116764 0.256219
H27   H     H_    0.284146 0.643797 0.173768 0.234934
H28   H     H_    0.321544 0.609713 0.132737 0.213738
H29   H     H_    0.245358 0.571643 0.110323 0.171977
H30   H     H_    0.245626 0.609792 0.071404 0.175443
H31   H     H_    0.700483 0.389011 0.836924 0.258804
H32   H     H_    0.716196 0.331917 0.863502 0.243500
H33   H     H_    0.683258 0.377395 0.898924 0.210616
H34   H     H_    0.763750 0.391553 0.931516 0.181074
H35   H     H_    0.957052 0.077524 0.766432 0.224863
H36   H     H_    0.764769 0.432244 0.890596 0.183127
H37   H     H_    0.837643 0.645149 0.285749 0.229913
H38   H     H_    0.863371 0.589237 0.312091 0.225234
H39   H     H_    0.902019 0.643577 0.308317 0.242490
H40   H     H_    0.892559 0.565774 0.233101 0.172449
H41   H     H_    0.932222 0.607866 0.236104 0.178867
H42   H     H_    0.161892 0.391385 0.701664 0.251631
H43   H     H_    0.135285 0.334906 0.717715 0.245172
H44   H     H_    0.099838 0.381154 0.685715 0.208157
H45   H     H_    0.066997 0.392338 0.766422 0.184721
H46   H     H_    0.892246 0.142129 0.777415 0.168010
H47   H     H_    0.108226 0.433945 0.767934 0.184864
H48   H     H_    0.702147 0.661737 0.891540 0.250513
H49   H     H_    0.717011 0.633487 0.836297 0.245640
H50   H     H_    0.685206 0.599506 0.883841 0.206939
H51   H     H_    0.766874 0.566148 0.892544 0.182432
H52   H     H_    0.769113 0.608034 0.933688 0.185828
H53   H     H_    0.305796 0.392454 0.164086 0.252584
H54   H     H_    0.283420 0.332087 0.150851 0.232148
H55   H     H_    0.319048 0.365377 0.106351 0.214344
H56   H     H_    0.243859 0.390722 0.070584 0.173843
H57   H     H_    0.868494 0.094327 0.777460 0.188068
H58   H     H_    0.241417 0.430290 0.109216 0.171230
H59   H     H_    0.108293 0.661653 0.701530 0.254757
H60   H     H_    0.164514 0.633986 0.716528 0.248057
H61   H     H_    0.117223 0.599218 0.685445 0.208173
H62   H     H_    0.107743 0.566967 0.766602 0.183235
H63   H     H_    0.066620 0.608520 0.768728 0.187401
H64   H     H_    0.831614 0.389014 0.302222 0.255732
H65   H     H_    0.854725 0.330923 0.285094 0.231590
H66   H     H_    0.891739 0.371838 0.319987 0.212021
H67   H     H_    0.929696 0.390506 0.243513 0.171665
H68   H     H_    0.051574 0.902706 0.274402 0.247603
H69   H     H_    0.891265 0.430644 0.240995 0.170222
H70   H     H_    0.217657 0.453475 0.920023 0.240954
H71   H     H_    0.207123 0.399834 0.957716 0.249440
H72   H     H_    0.267233 0.427357 0.954909 0.221574
H73   H     H_    0.277731 0.360090 0.894694 0.175231
H74   H     H_    0.276866 0.406829 0.869597 0.190389
H75   H     H_    0.774104 0.589695 0.048258 0.242834
H76   H     H_    0.782332 0.546104 0.097463 0.245898
H77   H     H_    0.722314 0.556731 0.071840 0.217534
H78   H     H_    0.719874 0.609435 0.146858 0.171639
H79   H     H_    0.096019 0.950322 0.267608 0.244508
H80   H     H_    0.719769 0.640527 0.103280 0.182119
H81   H     H_    0.920037 0.452827 0.781390 0.238584
H82   H     H_    0.954540 0.398454 0.796176 0.246476
H83   H     H_    0.958100 0.423914 0.735582 0.222094
H84   H     H_    0.893833 0.359038 0.721726 0.170865
H85   H     H_    0.870041 0.407324 0.722587 0.190225
H86   H     H_    0.057661 0.598404 0.233246 0.237324
H87   H     H_    0.100413 0.551725 0.251916 0.236510
H88   H     H_    0.071330 0.589946 0.299840 0.199986
H89   H     H_    0.161397 0.620268 0.281450 0.176842
H90   H     H_    0.066398 0.925316 0.214013 0.213323
H91   H     H_    0.121945 0.663303 0.281479 0.165449
H92   H     H_    0.702313 0.338127 0.109249 0.249907
H93   H     H_    0.718224 0.366062 0.164485 0.246967
H94   H     H_    0.685927 0.400296 0.117411 0.207213
H95   H     H_    0.767416 0.433526 0.107325 0.182697
H96   H     H_    0.768818 0.392032 0.065750 0.184866
H97   H     H_    0.219619 0.597213 0.948628 0.244798
H98   H     H_    0.229888 0.548338 0.905291 0.247094
H99   H     H_    0.281580 0.574457 0.938685 0.213342
H100  H     H_    0.280668 0.608792 0.852391 0.189872
H101  H     H_    0.151074 0.888289 0.219117 0.188228
H102  H     H_    0.280825 0.649354 0.888794 0.176421
H103  H     H_    0.109154 0.337729 0.298210 0.250742
H104  H     H_    0.165439 0.364401 0.281972 0.244910
H105  H     H_    0.119114 0.399527 0.314366 0.206638
H106  H     H_    0.107569 0.433052 0.233925 0.179477
H107  H     H_    0.065949 0.391848 0.232556 0.182648
H108  H     H_    0.952867 0.585210 0.776373 0.239241
H109  H     H_    0.900890 0.545667 0.788930 0.246574
H110  H     H_    0.925952 0.549663 0.728122 0.222712
H111  H     H_    0.855590 0.608635 0.721224 0.169975
H112  H     H_    0.710476 0.099158 0.045068 0.247612
H113  H     H_    0.113242 0.848124 0.218858 0.177299
H114  H     H_    0.901416 0.635979 0.720741 0.186146
H115  H     H_    0.453294 0.913452 0.219366 0.245845
H116  H     H_    0.402347 0.955524 0.212473 0.249643
H117  H     H_    0.430476 0.946533 0.271581 0.221691
H118  H     H_    0.357217 0.892588 0.277251 0.172707
H119  H     H_    0.399930 0.863608 0.278147 0.179343
H120  H     H_    0.591742 0.047903 0.768662 0.244307
H121  H     H_    0.547062 0.095855 0.777584 0.248525
H122  H     H_    0.560558 0.073714 0.717034 0.216494
H123  H     H_    0.611581 0.149754 0.720376 0.173643
H124  H     H_    0.277228 0.050764 0.902278 0.246633
H125  H     H_    0.644284 0.107164 0.720441 0.181863
H126  H     H_    0.451531 0.775389 0.910232 0.245891
H127  H     H_    0.401869 0.784432 0.952964 0.249714
H128  H     H_    0.428255 0.724333 0.944862 0.220562
H129  H     H_    0.353719 0.719289 0.891654 0.174860
H130  H     H_    0.397921 0.719745 0.860778 0.184733
H131  H     H_    0.587095 0.220256 0.046236 0.244572
H132  H     H_    0.544621 0.212974 0.096782 0.250632
H133  H     H_    0.553823 0.272452 0.069013 0.220599
H134  H     H_    0.606707 0.277360 0.142101 0.173028
H135  H     H_    0.270974 0.094852 0.949788 0.244955
H136  H     H_    0.636620 0.278613 0.100054 0.179511
H137  H     H_    0.452968 0.078210 0.782592 0.236629
H138  H     H_    0.398150 0.043473 0.796178 0.245432
H139  H     H_    0.424117 0.041941 0.735669 0.223308
H140  H     H_    0.359551 0.106780 0.723318 0.167766
H141  H     H_    0.407804 0.129356 0.723869 0.191360
H142  H     H_    0.593909 0.952825 0.221761 0.247147
H143  H     H_    0.548307 0.905353 0.217584 0.247855
H144  H     H_    0.561217 0.933679 0.275782 0.217678
H145  H     H_    0.606998 0.855521 0.279503 0.180630
H146  H     H_    0.217177 0.064389 0.926598 0.213621
H147  H     H_    0.642896 0.894010 0.280098 0.176983
H148  H     H_    0.448758 0.221669 0.098068 0.248168
H149  H     H_    0.405251 0.229844 0.050326 0.243631
H150  H     H_    0.436801 0.282458 0.074713 0.214582
H151  H     H_    0.350748 0.280756 0.109922 0.189148
H152  H     H_    0.387230 0.280837 0.151023 0.175539
H153  H     H_    0.590360 0.779733 0.953164 0.247029
H154  H     H_    0.546323 0.785013 0.904256 0.249494
H155  H     H_    0.557613 0.726225 0.932857 0.220022
H156  H     H_    0.607116 0.721987 0.856873 0.174866
H157  H     H_    0.219408 0.149277 0.889871 0.186919
H158  H     H_    0.639443 0.720712 0.897356 0.177815
H159  H     H_    0.663427 0.107607 0.306107 0.250848
H160  H     H_    0.651850 0.168024 0.282563 0.231332
H161  H     H_    0.605862 0.136150 0.318312 0.214766
H162  H     H_    0.570630 0.109410 0.243133 0.173367
H163  H     H_    0.609184 0.069947 0.241768 0.174588
H164  H     H_    0.391681 0.838426 0.702415 0.249827
H165  H     H_    0.336659 0.867077 0.717359 0.247044
H166  H     H_    0.384540 0.900845 0.686101 0.206258
H167  H     H_    0.392915 0.933746 0.767482 0.184524
H168  H     H_    0.219150 0.112254 0.849562 0.175064
H169  H     H_    0.434429 0.891916 0.769624 0.186122
H170  H     H_    0.650783 0.284094 0.847144 0.235534
H171  H     H_    0.593313 0.309677 0.860736 0.235993
H172  H     H_    0.638713 0.309174 0.906587 0.241330
H173  H     H_    0.564169 0.233509 0.892678 0.179807
H174  H     H_    0.606706 0.233451 0.933736 0.183813
H175  H     H_    0.420237 0.781050 0.046927 0.239778
H176  H     H_    0.456776 0.793220 0.100521 0.248440
H177  H     H_    0.456265 0.732900 0.074673 0.220148
H178  H     H_    0.393392 0.722396 0.141413 0.170306
H179  H     H_    0.720300 0.919098 0.047350 0.242836
H180  H     H_    0.369017 0.722934 0.094162 0.190863
H181  H     H_    0.661925 0.891230 0.701880 0.252485
H182  H     H_    0.634750 0.834776 0.717069 0.245853
H183  H     H_    0.599794 0.881731 0.685308 0.208886
H184  H     H_    0.567125 0.892137 0.766648 0.182000
H185  H     H_    0.608417 0.933436 0.768171 0.185847
H186  H     H_    0.419746 0.047143 0.219143 0.238668
H187  H     H_    0.454775 0.101301 0.204400 0.246390
H188  H     H_    0.456712 0.076402 0.265383 0.221020
H189  H     H_    0.392469 0.141810 0.277183 0.168427
H190  H     H_    0.706829 0.955636 0.100578 0.248768
H191  H     H_    0.368856 0.094049 0.277113 0.188948
H192  H     H_    0.667122 0.698921 0.113795 0.247100
H193  H     H_    0.643690 0.717166 0.171561 0.225868
H194  H     H_    0.608054 0.680029 0.130869 0.222149
H195  H     H_    0.569968 0.758362 0.109722 0.178344
H196  H     H_    0.609584 0.759274 0.070346 0.177713
H197  H     H_    0.340918 0.285907 0.847103 0.235755
H198  H     H_    0.354441 0.312160 0.903798 0.239339
H199  H     H_    0.400065 0.312470 0.857796 0.244381
H200  H     H_    0.391809 0.237481 0.931947 0.176933
H201  H     H_    0.767792 0.955293 0.075449 0.223303
H202  H     H_    0.431081 0.239449 0.890890 0.178635
H203  H     H_    0.083894 0.778194 0.452514 0.242857
H204  H     H_    0.045525 0.791201 0.400322 0.246609
H205  H     H_    0.047491 0.730223 0.425446 0.218710
H206  H     H_    0.107874 0.721478 0.356468 0.167872
H207  H     H_    0.134761 0.721412 0.402247 0.186022
H208  H     H_    0.950159 0.223604 0.597866 0.246465
H209  H     H_    0.905573 0.227761 0.550482 0.246876
H210  H     H_    0.934989 0.282678 0.572326 0.213566
H211  H     H_    0.851063 0.280403 0.609806 0.188118
H212  H     H_    0.777819 0.892593 0.142217 0.169113
H213  H     H_    0.887654 0.280658 0.650353 0.175336
H214  H     H_    0.302055 0.111283 0.331048 0.256464
H215  H     H_    0.285556 0.169018 0.355902 0.231505
H216  H     H_    0.319765 0.125979 0.391495 0.213146
H217  H     H_    0.243279 0.109636 0.429537 0.173433
H218  H     H_    0.241335 0.068909 0.391449 0.172315
H219  H     H_    0.777824 0.952971 0.587935 0.244942
H220  H     H_    0.786027 0.902978 0.545499 0.251250
H221  H     H_    0.726197 0.929943 0.554277 0.221626
H222  H     H_    0.721058 0.856248 0.607245 0.177726
H223  H     H_    0.771825 0.075123 0.047846 0.217906
H224  H     H_    0.777509 0.867685 0.095314 0.187331
H225  H     H_    0.720848 0.898966 0.637934 0.182347
H226  H     H_    0.901394 0.222806 0.448656 0.245643
H227  H     H_    0.949423 0.230301 0.405225 0.244641
H228  H     H_    0.924583 0.283422 0.435578 0.214421
H229  H     H_    0.889516 0.281045 0.350270 0.188135
H230  H     H_    0.847858 0.280533 0.386343 0.173252
H231  H     H_    0.046744 0.784816 0.582053 0.242713
H232  H     H_    0.099861 0.793110 0.543190 0.250987
H233  H     H_    0.069955 0.734013 0.546844 0.226640
H234  H     H_    0.138988 0.722077 0.603995 0.175350
H235  H     H_    0.109465 0.162367 0.201922 0.250150
H236  H     H_    0.093609 0.722782 0.630837 0.189247
H237  H     H_    0.782230 0.920362 0.452573 0.239705
H238  H     H_    0.795450 0.956052 0.398423 0.247533
H239  H     H_    0.735065 0.957527 0.424902 0.225638
H240  H     H_    0.721676 0.894408 0.359606 0.170863
H241  H     H_    0.722797 0.870054 0.407166 0.190645
H242  H     H_    0.244577 0.052020 0.599142 0.239846
H243  H     H_    0.236418 0.100127 0.555393 0.243538
H244  H     H_    0.299165 0.083412 0.574063 0.201526
H245  H     H_    0.281293 0.161610 0.620185 0.178252
H246  H     H_    0.165249 0.135336 0.218667 0.245146
H247  H     H_    0.282896 0.119072 0.659720 0.175133
H248  H     H_    0.886644 0.697433 0.667982 0.253050
H249  H     H_    0.828939 0.715562 0.645610 0.232372
H250  H     H_    0.868589 0.678654 0.608587 0.212097
H251  H     H_    0.890351 0.755717 0.570910 0.172699
H252  H     H_    0.929693 0.757433 0.609674 0.176458
H253  H     H_    0.046478 0.222938 0.414340 0.245030
H254  H     H_    0.097209 0.214562 0.456058 0.249535
H255  H     H_    0.070651 0.274537 0.447134 0.219895
H256  H     H_    0.143380 0.278528 0.392710 0.177028
H257  H     H_    0.118834 0.100578 0.185918 0.206367
H258  H     H_    0.099791 0.279025 0.363158 0.183324
H259  H     H_    0.691213 0.107447 0.658903 0.241882
H260  H     H_    0.717794 0.169146 0.653194 0.228577
H261  H     H_    0.682877 0.142344 0.603416 0.224537
H262  H     H_    0.757618 0.109626 0.570707 0.174438
H263  H     H_    0.757019 0.070797 0.609951 0.176241
H264  H     H_    0.286438 0.851840 0.336821 0.230737
H265  H     H_    0.312843 0.908666 0.357400 0.234093
H266  H     H_    0.311428 0.857431 0.399005 0.241583
H267  H     H_    0.235282 0.932782 0.391639 0.172820
H268  H     H_    0.107240 0.066683 0.266668 0.180144
H269  H     H_    0.239198 0.891269 0.430560 0.177521
H270  H     H_    0.158396 0.286885 0.650100 0.233570
H271  H     H_    0.142903 0.311956 0.593363 0.237738
H272  H     H_    0.098291 0.312519 0.640420 0.241147
H273  H     H_    0.107859 0.235640 0.567034 0.178671
H274  H     H_    0.068229 0.238184 0.608637 0.182304
H275  H     H_    0.845514 0.695040 0.398039 0.245269
H276  H     H_    0.859071 0.716458 0.336030 0.238645
H277  H     H_    0.907209 0.687389 0.374408 0.210273
H278  H     H_    0.932979 0.767438 0.391837 0.181996
H279  H     H_    0.065556 0.107968 0.267835 0.183458
H280  H     H_    0.891280 0.767583 0.432908 0.183049
H281  H     H_    0.286570 0.839639 0.654150 0.231989
H282  H     H_    0.311844 0.851472 0.596308 0.239584
H283  H     H_    0.314791 0.898228 0.640627 0.237456
H284  H     H_    0.239246 0.891630 0.568115 0.171727
H285  H     H_    0.240483 0.930060 0.609460 0.177105
H286  H     H_    0.779226 0.046988 0.418734 0.240117
H287  H     H_    0.794683 0.100631 0.453621 0.248540
H288  H     H_    0.733235 0.076781 0.456099 0.220434
H289  H     H_    0.721919 0.142649 0.392506 0.169813
H290  H     H_    0.837421 0.890579 0.798350 0.254107
H291  H     H_    0.722076 0.094804 0.368146 0.188357
H292  H     H_    0.724154 0.551097 0.597402 0.246589
H293  H     H_    0.729225 0.595494 0.549766 0.249083
H294  H     H_    0.783666 0.565419 0.572557 0.215593
H295  H     H_    0.781339 0.649671 0.610313 0.188612
H296  H     H_    0.781218 0.611881 0.650207 0.178169
H297  H     H_    0.213467 0.341373 0.348593 0.234397
H298  H     H_    0.187793 0.356023 0.405251 0.237831
H299  H     H_    0.187242 0.401015 0.358587 0.241200
H300  H     H_    0.263303 0.392054 0.432539 0.177604
H301  H     H_    0.864497 0.834486 0.782275 0.244395
H302  H     H_    0.261081 0.431442 0.391201 0.179099
H303  H     H_    0.390094 0.663576 0.805467 0.247094
H304  H     H_    0.329665 0.650832 0.782153 0.232809
H305  H     H_    0.362510 0.606086 0.818846 0.215028
H306  H     H_    0.390381 0.570682 0.743518 0.169401
H307  H     H_    0.429448 0.609449 0.742975 0.170200
H308  H     H_    0.655590 0.339633 0.214489 0.234075
H309  H     H_    0.597792 0.350112 0.188641 0.243467
H310  H     H_    0.642035 0.397534 0.185938 0.241079
H311  H     H_    0.568758 0.391237 0.260843 0.178166
H312  H     H_    0.899523 0.880689 0.814554 0.207595
H313  H     H_    0.609499 0.429793 0.258460 0.179780
H314  H     H_    0.200461 0.668068 0.385659 0.240590
H315  H     H_    0.216680 0.638083 0.330078 0.220040
H316  H     H_    0.179493 0.605464 0.377041 0.209802
H317  H     H_    0.260871 0.568367 0.391402 0.173528
H318  H     H_    0.262456 0.608509 0.431629 0.173540
H319  H     H_    0.803166 0.388449 0.667263 0.255353
H320  H     H_    0.784042 0.330287 0.646611 0.231451
H321  H     H_    0.820501 0.368748 0.607882 0.212510
H322  H     H_    0.743142 0.390632 0.570768 0.174907
H323  H     H_    0.932854 0.892437 0.733898 0.180128
H324  H     H_    0.742236 0.430419 0.609271 0.175710
H325  H     H_    0.599186 0.554564 0.264345 0.242216
H326  H     H_    0.552445 0.599961 0.258332 0.246524
H327  H     H_    0.581033 0.574739 0.203209 0.203743
H328  H     H_    0.619246 0.659996 0.218927 0.181449
H329  H     H_    0.660062 0.619552 0.218198 0.171386
H330  H     H_    0.337685 0.390800 0.798295 0.252586
H331  H     H_    0.364859 0.334812 0.782167 0.245743
H332  H     H_    0.399771 0.381369 0.814398 0.206597
H333  H     H_    0.433024 0.392546 0.733475 0.184271
H334  H     H_    0.778675 0.144042 0.108309 0.169896
H335  H     H_    0.891699 0.933832 0.732266 0.185794
H336  H     H_    0.391842 0.434086 0.732002 0.183218
H337  H     H_    0.719690 0.452651 0.418093 0.242249
H338  H     H_    0.705364 0.399051 0.454037 0.247654
H339  H     H_    0.766539 0.423920 0.455035 0.220500
H340  H     H_    0.777801 0.357426 0.392330 0.168637
H341  H     H_    0.777856 0.404777 0.367763 0.187611
H342  H     H_    0.213926 0.661065 0.654609 0.233060
H343  H     H_    0.189137 0.651255 0.596325 0.243958
H344  H     H_    0.184261 0.603404 0.639488 0.234869
H345  H     H_    0.260963 0.608587 0.568437 0.171734
H346  H     H_    0.714158 0.953367 0.924419 0.237877
H347  H     H_    0.258260 0.570182 0.609577 0.179842
H348  H     H_    0.418495 0.453050 0.279792 0.237190
H349  H     H_    0.454118 0.399289 0.294768 0.247318
H350  H     H_    0.456060 0.423907 0.233751 0.221647
H351  H     H_    0.392667 0.357858 0.222295 0.169187
H352  H     H_    0.368252 0.405281 0.222269 0.187019
H353  H     H_    0.656824 0.659329 0.784706 0.231760
H354  H     H_    0.598227 0.651414 0.810243 0.244528
H355  H     H_    0.640480 0.602543 0.814600 0.237152
H356  H     H_    0.568353 0.608567 0.739474 0.172693
H357  H     H_    0.701680 0.897658 0.958000 0.252601
H358  H     H_    0.609291 0.569855 0.741645 0.181207
H359  H     H_    0.277062 0.453130 0.587316 0.243912
H360  H     H_    0.286363 0.402858 0.545361 0.250027
H361  H     H_    0.226086 0.428973 0.553464 0.219285
H362  H     H_    0.221201 0.356122 0.607499 0.176755
H363  H     H_    0.220917 0.399247 0.637661 0.182186
H364  H     H_    0.713156 0.574657 0.453024 0.239018
H365  H     H_    0.701584 0.541252 0.397348 0.252929
H366  H     H_    0.761611 0.539431 0.425022 0.229458
H367  H     H_    0.775768 0.603984 0.362681 0.178423
H368  H     H_    0.762036 0.924999 0.960241 0.228535
H369  H     H_    0.773463 0.625764 0.411414 0.195988
H370  H     H_    0.563984 0.451726 0.707501 0.234021
H371  H     H_    0.536948 0.392865 0.696623 0.257071
H372  H     H_    0.531895 0.420541 0.756443 0.230493
H373  H     H_    0.601634 0.367480 0.773452 0.191184
H374  H     H_    0.617858 0.421281 0.764670 0.215645
H375  H     H_    0.447690 0.597920 0.273240 0.243005
H376  H     H_    0.404699 0.551376 0.262837 0.245496
H377  H     H_    0.433945 0.579651 0.210595 0.211993
H378  H     H_    0.347692 0.611135 0.218455 0.195972
H379  H     H_    0.776782 0.862531 0.896073 0.177470
H380  H     H_    0.384951 0.654228 0.217868 0.179906
H381  H     H_    0.448365 0.277170 0.401062 0.245966
H382  H     H_    0.405365 0.267701 0.449056 0.242216
H383  H     H_    0.436501 0.215776 0.422863 0.213580
H384  H     H_    0.349567 0.218966 0.389064 0.188000
H385  H     H_    0.385705 0.219427 0.347088 0.173784
H386  H     H_    0.659355 0.787004 0.649857 0.234607
H387  H     H_    0.643348 0.812395 0.593337 0.237590
H388  H     H_    0.599035 0.812862 0.640649 0.241769
H389  H     H_    0.607831 0.736824 0.566933 0.175296
H390  H     H_    0.774168 0.911569 0.873915 0.196955
H391  H     H_    0.568579 0.738998 0.608695 0.181063
H392  H     H_    0.452968 0.721068 0.589719 0.245401
H393  H     H_    0.403701 0.715020 0.546347 0.248720
H394  H     H_    0.431526 0.774219 0.556544 0.219549
H395  H     H_    0.356173 0.778585 0.607112 0.176611
H396  H     H_    0.397578 0.779441 0.639058 0.179418
H397  H     H_    0.598047 0.277955 0.448729 0.247226
H398  H     H_    0.550275 0.270599 0.405257 0.245653
H399  H     H_    0.574382 0.217486 0.436529 0.215237
H400  H     H_    0.609880 0.219133 0.351158 0.189098
H401  H     H_    0.213993 0.159190 0.153735 0.235899
H402  H     H_    0.651191 0.219090 0.387490 0.175814
H403  H     H_    0.668457 0.800881 0.383336 0.245896
H404  H     H_    0.638043 0.786276 0.327663 0.230551
H405  H     H_    0.606868 0.821901 0.374449 0.208885
H406  H     H_    0.569828 0.741313 0.390569 0.174231
H407  H     H_    0.609181 0.741257 0.430308 0.173700
H408  H     H_    0.386718 0.197867 0.668223 0.254109
H409  H     H_    0.329527 0.215733 0.644020 0.225847
H410  H     H_    0.370433 0.179058 0.608150 0.214235
H411  H     H_    0.390680 0.256479 0.570490 0.174249
H412  H     H_    0.187979 0.146674 0.096542 0.240167
H413  H     H_    0.430347 0.258424 0.609345 0.175849
H414  H     H_    0.548604 0.276687 0.595499 0.246487
H415  H     H_    0.594653 0.275207 0.548504 0.248535
H416  H     H_    0.565477 0.218891 0.568445 0.215194
H417  H     H_    0.647011 0.220591 0.608943 0.184854
H418  H     H_    0.609252 0.219461 0.647009 0.176790
H419  H     H_    0.395327 0.802426 0.342467 0.246582
H420  H     H_    0.335455 0.782654 0.362430 0.243521
H421  H     H_    0.378228 0.813179 0.404667 0.209700
H422  H     H_    0.392304 0.732404 0.432758 0.182033
H423  H     H_    0.186926 0.100405 0.141848 0.243294
H424  H     H_    0.433742 0.731897 0.391183 0.185437
H425  H     H_    0.262194 0.108284 0.068386 0.175867
H426  H     H_    0.778823 0.097733 0.134839 0.185100
H427  H     H_    0.260153 0.069226 0.109281 0.178154
H428  H     H_    0.902351 0.948512 0.276228 0.246588
H429  H     H_    0.949937 0.904309 0.269426 0.247510
H430  H     H_    0.925734 0.935021 0.216121 0.213607
H431  H     H_    0.889004 0.849894 0.219276 0.187646
H432  H     H_    0.848896 0.887574 0.218675 0.176870
H433  H     H_    0.047173 0.085768 0.722759 0.245156
H434  H     H_    0.098966 0.046087 0.710743 0.247857
H435  H     H_    0.073463 0.049626 0.771323 0.219054
H436  H     H_    0.144102 0.108077 0.778712 0.168660
H437  H     H_    0.213629 0.840518 0.847161 0.233482
H438  H     H_    0.099132 0.136105 0.779144 0.182617
H439  H     H_    0.200987 0.827230 0.118891 0.250150
H440  H     H_    0.215266 0.857763 0.173718 0.228506
H441  H     H_    0.177459 0.887700 0.128570 0.209820
H442  H     H_    0.255409 0.928393 0.110409 0.171908
H443  H     H_    0.257251 0.890099 0.071302 0.171826
H444  H     H_    0.801467 0.111927 0.830764 0.253339
H445  H     H_    0.784733 0.169224 0.858493 0.231989
H446  H     H_    0.818038 0.123794 0.891578 0.217410
H447  H     H_    0.741765 0.109542 0.929947 0.176818
H448  H     H_    0.188325 0.852312 0.904817 0.240171
H449  H     H_    0.741191 0.068008 0.891890 0.180391
H450  H     H_    0.108133 0.838175 0.798709 0.254626
H451  H     H_    0.164713 0.864790 0.782796 0.247118
H452  H     H_    0.118163 0.900393 0.814352 0.207823
H453  H     H_    0.107754 0.932842 0.733934 0.185300
H454  H     H_    0.066174 0.891686 0.732226 0.184924
H455  H     H_    0.840718 0.106805 0.194082 0.247338
H456  H     H_    0.854370 0.168489 0.216501 0.234352
H457  H     H_    0.899924 0.133616 0.182031 0.219909
H458  H     H_    0.930904 0.108755 0.260991 0.172751
H459  H     H_    0.185741 0.899372 0.860269 0.237679
H460  H     H_    0.890804 0.069046 0.261087 0.175693
H461  H     H_    0.947900 0.276159 0.900620 0.243513
H462  H     H_    0.904958 0.266377 0.948517 0.243748
H463  H     H_    0.935735 0.214601 0.921681 0.211705
H464  H     H_    0.848362 0.218853 0.888141 0.186788
H465  H     H_    0.884787 0.219203 0.845881 0.173254
H466  H     H_    0.078362 0.719731 0.046833 0.240894
H467  H     H_    0.043811 0.705238 0.101146 0.247724
H468  H     H_    0.041857 0.766312 0.076588 0.220536
H469  H     H_    0.106661 0.777598 0.140815 0.169510
H470  H     H_    0.261894 0.891909 0.932577 0.173766
H471  H     H_    0.129954 0.777195 0.092671 0.192484
H472  H     H_    0.835289 0.805374 0.109772 0.250429
H473  H     H_    0.850273 0.782486 0.169038 0.231380
H474  H     H_    0.893529 0.818655 0.135106 0.215707
H475  H     H_    0.929518 0.743008 0.109578 0.174110
H476  H     H_    0.890808 0.742145 0.069772 0.173641
H477  H     H_    0.106228 0.192737 0.839579 0.245519
H478  H     H_    0.167398 0.217107 0.849086 0.228716
H479  H     H_    0.136402 0.182175 0.896617 0.215281
H480  H     H_    0.108894 0.257874 0.930244 0.174288
O1    O     O_R   0.553790 0.256330 0.314650 -0.625536
O2    O     O_R   0.446210 0.256330 0.314650 -0.621995
O3    O     O_R   0.814650 0.743670 0.946210 -0.624853
O4    O     O_R   0.946210 0.256330 0.185350 -0.619592
O5    O     O_R   0.053790 0.743670 0.814650 -0.642222
O6    O     O_R   0.814650 0.256330 0.946210 -0.621712
O7    O     O_R   0.185350 0.743670 0.053790 -0.637984
O8    O     O_R   0.053790 0.743670 0.185350 -0.621538
O9    O     O_R   0.946210 0.256330 0.814650 -0.624353
O10   O     O_R   0.185350 0.743670 0.946210 -0.619255
O11   O     O_R   0.814650 0.256330 0.053790 -0.631217
O12   O     O_R   0.946210 0.743670 0.814650 -0.619393
O13   O     O_R   0.685350 0.743670 0.446210 -0.629767
O14   O     O_R   0.053790 0.256330 0.185350 -0.637576
O15   O     O_R   0.814650 0.743670 0.053790 -0.630125
O16   O     O_R   0.185350 0.256330 0.946210 -0.621973
O17   O     O_R   0.743670 0.185350 0.053790 -0.621461
O18   O     O_R   0.256330 0.814650 0.946210 -0.626498
O19   O     O_R   0.743670 0.946210 0.185350 -0.619476
O20   O     O_R   0.256330 0.053790 0.814650 -0.626341
O21   O     O_R   0.743670 0.814650 0.946210 -0.617075
O22   O     O_R   0.256330 0.185350 0.053790 -0.621708
O23   O     O_R   0.743670 0.053790 0.814650 -0.623898
O24   O     O_R   0.314650 0.256330 0.553790 -0.621734
O25   O     O_R   0.256330 0.946210 0.185350 -0.624131
O26   O     O_R   0.256330 0.814650 0.053790 -0.628489
O27   O     O_R   0.743670 0.185350 0.946210 -0.622669
O28   O     O_R   0.256330 0.053790 0.185350 -0.621093
O29   O     O_R   0.743670 0.946210 0.814650 -0.643401
O30   O     O_R   0.256330 0.185350 0.946210 -0.627562
O31   O     O_R   0.743670 0.814650 0.053790 -0.636423
O32   O     O_R   0.256330 0.946210 0.814650 -0.616726
O33   O     O_R   0.743670 0.053790 0.185350 -0.636492
O34   O     O_R   0.814650 0.946210 0.743670 -0.624569
O35   O     O_R   0.446210 0.743670 0.314650 -0.631055
O36   O     O_R   0.185350 0.053790 0.256330 -0.615720
O37   O     O_R   0.053790 0.814650 0.743670 -0.629652
O38   O     O_R   0.946210 0.185350 0.256330 -0.620132
O39   O     O_R   0.185350 0.053790 0.743670 -0.623931
O40   O     O_R   0.814650 0.946210 0.256330 -0.625787
O41   O     O_R   0.946210 0.185350 0.743670 -0.618539
O42   O     O_R   0.053790 0.814650 0.256330 -0.623053
O43   O     O_R   0.185350 0.946210 0.256330 -0.626231
O44   O     O_R   0.814650 0.053790 0.743670 -0.641373
O45   O     O_R   0.946210 0.814650 0.256330 -0.621909
O46   O     O_R   0.553790 0.256330 0.685350 -0.629224
O47   O     O_R   0.053790 0.185350 0.743670 -0.633581
O48   O     O_R   0.814650 0.053790 0.256330 -0.630120
O49   O     O_R   0.185350 0.946210 0.743670 -0.613293
O50   O     O_R   0.053790 0.185350 0.256330 -0.626986
O51   O     O_R   0.946210 0.814650 0.743670 -0.617607
O52   O     O_R   0.553790 0.756330 0.814650 -0.620271
O53   O     O_R   0.446210 0.243670 0.185350 -0.621766
O54   O     O_R   0.185350 0.756330 0.553790 -0.622219
O55   O     O_R   0.814650 0.243670 0.446210 -0.622557
O56   O     O_R   0.446210 0.756330 0.185350 -0.622134
O57   O     O_R   0.314650 0.743670 0.553790 -0.624968
O58   O     O_R   0.553790 0.243670 0.814650 -0.624363
O59   O     O_R   0.814650 0.756330 0.446210 -0.630212
O60   O     O_R   0.185350 0.243670 0.553790 -0.619751
O61   O     O_R   0.553790 0.243670 0.185350 -0.621446
O62   O     O_R   0.446210 0.756330 0.814650 -0.633820
O63   O     O_R   0.185350 0.243670 0.446210 -0.621552
O64   O     O_R   0.814650 0.756330 0.553790 -0.624142
O65   O     O_R   0.446210 0.243670 0.814650 -0.622549
O66   O     O_R   0.553790 0.756330 0.185350 -0.616580
O67   O     O_R   0.814650 0.243670 0.553790 -0.623294
O68   O     O_R   0.685350 0.256330 0.446210 -0.622556
O69   O     O_R   0.185350 0.756330 0.446210 -0.634816
O70   O     O_R   0.243670 0.185350 0.553790 -0.621996
O71   O     O_R   0.756330 0.814650 0.446210 -0.638103
O72   O     O_R   0.243670 0.446210 0.185350 -0.628188
O73   O     O_R   0.756330 0.553790 0.814650 -0.616775
O74   O     O_R   0.243670 0.814650 0.446210 -0.624063
O75   O     O_R   0.756330 0.185350 0.553790 -0.618947
O76   O     O_R   0.243670 0.553790 0.814650 -0.622412
O77   O     O_R   0.756330 0.446210 0.185350 -0.614470
O78   O     O_R   0.756330 0.814650 0.553790 -0.619201
O79   O     O_R   0.743670 0.685350 0.553790 -0.624189
O80   O     O_R   0.243670 0.185350 0.446210 -0.624259
O81   O     O_R   0.756330 0.553790 0.185350 -0.624082
O82   O     O_R   0.243670 0.446210 0.814650 -0.639260
O83   O     O_R   0.756330 0.185350 0.446210 -0.621771
O84   O     O_R   0.243670 0.814650 0.553790 -0.627170
O85   O     O_R   0.756330 0.446210 0.814650 -0.629825
O86   O     O_R   0.243670 0.553790 0.185350 -0.623447
O87   O     O_R   0.814650 0.446210 0.243670 -0.628170
O88   O     O_R   0.185350 0.553790 0.756330 -0.615515
O89   O     O_R   0.553790 0.814650 0.243670 -0.619927
O90   O     O_R   0.256330 0.314650 0.446210 -0.620008
O91   O     O_R   0.446210 0.185350 0.756330 -0.639010
O92   O     O_R   0.185350 0.553790 0.243670 -0.625030
O93   O     O_R   0.814650 0.446210 0.756330 -0.637788
O94   O     O_R   0.446210 0.185350 0.243670 -0.622178
O95   O     O_R   0.553790 0.814650 0.756330 -0.615161
O96   O     O_R   0.185350 0.446210 0.756330 -0.627828
O97   O     O_R   0.814650 0.553790 0.243670 -0.620859
O98   O     O_R   0.446210 0.814650 0.756330 -0.628287
O99   O     O_R   0.553790 0.185350 0.243670 -0.619416
O100  O     O_R   0.814650 0.553790 0.756330 -0.618299
O101  O     O_R   0.743670 0.446210 0.685350 -0.624721
O102  O     O_R   0.185350 0.446210 0.243670 -0.617609
O103  O     O_R   0.553790 0.185350 0.756330 -0.620447
O104  O     O_R   0.446210 0.814650 0.243670 -0.632114
O105  O     O_R   0.446210 0.743670 0.685350 -0.636281
O106  O     O_R   0.256330 0.553790 0.314650 -0.623961
O107  O     O_R   0.743670 0.314650 0.446210 -0.621952
O108  O     O_R   0.256330 0.685350 0.553790 -0.625999
O109  O     O_R   0.743670 0.553790 0.314650 -0.616184
O110  O     O_R   0.256330 0.446210 0.685350 -0.637644
O111  O     O_R   0.256330 0.314650 0.553790 -0.621531
O112  O     O_R   0.743670 0.685350 0.446210 -0.641073
O113  O     O_R   0.256330 0.553790 0.685350 -0.618361
O114  O     O_R   0.743670 0.446210 0.314650 -0.637018
O115  O     O_R   0.256330 0.685350 0.446210 -0.627292
O116  O     O_R   0.685350 0.256330 0.553790 -0.621350
O117  O     O_R   0.743670 0.314650 0.553790 -0.618502
O118  O     O_R   0.256330 0.446210 0.314650 -0.621342
O119  O     O_R   0.743670 0.553790 0.685350 -0.627868
O120  O     O_R   0.314650 0.446210 0.743670 -0.627996
O121  O     O_R   0.685350 0.553790 0.256330 -0.625321
O122  O     O_R   0.553790 0.314650 0.743670 -0.615642
O123  O     O_R   0.446210 0.685350 0.256330 -0.621108
O124  O     O_R   0.685350 0.553790 0.743670 -0.619202
O125  O     O_R   0.314650 0.446210 0.256330 -0.638542
O126  O     O_R   0.446210 0.685350 0.743670 -0.632148
O127  O     O_R   0.314650 0.743670 0.446210 -0.613331
O128  O     O_R   0.553790 0.314650 0.256330 -0.621329
O129  O     O_R   0.685350 0.446210 0.256330 -0.619281
O130  O     O_R   0.314650 0.553790 0.743670 -0.622080
O131  O     O_R   0.446210 0.314650 0.256330 -0.622459
O132  O     O_R   0.553790 0.685350 0.743670 -0.626567
O133  O     O_R   0.314650 0.553790 0.256330 -0.624731
O134  O     O_R   0.685350 0.446210 0.743670 -0.650761
O135  O     O_R   0.553790 0.685350 0.256330 -0.618428
O136  O     O_R   0.446210 0.314650 0.743670 -0.614299
O137  O     O_R   0.053790 0.756330 0.314650 -0.622464
O138  O     O_R   0.446210 0.256330 0.685350 -0.625649
O139  O     O_R   0.946210 0.243670 0.685350 -0.626663
O140  O     O_R   0.685350 0.756330 0.053790 -0.628192
O141  O     O_R   0.314650 0.243670 0.946210 -0.621268
O142  O     O_R   0.946210 0.756330 0.685350 -0.625774
O143  O     O_R   0.053790 0.243670 0.314650 -0.635053
O144  O     O_R   0.314650 0.756330 0.946210 -0.622949
O145  O     O_R   0.685350 0.243670 0.053790 -0.635716
O146  O     O_R   0.053790 0.243670 0.685350 -0.619422
O147  O     O_R   0.946210 0.756330 0.314650 -0.614906
O148  O     O_R   0.685350 0.243670 0.946210 -0.615212
O149  O     O_R   0.553790 0.743670 0.314650 -0.621735
O150  O     O_R   0.314650 0.756330 0.053790 -0.636765
O151  O     O_R   0.946210 0.243670 0.314650 -0.622306
O152  O     O_R   0.053790 0.756330 0.685350 -0.640189
O153  O     O_R   0.314650 0.243670 0.053790 -0.628096
O154  O     O_R   0.685350 0.756330 0.946210 -0.634075
O155  O     O_R   0.243670 0.685350 0.053790 -0.627650
O156  O     O_R   0.756330 0.314650 0.946210 -0.617006
O157  O     O_R   0.243670 0.946210 0.685350 -0.618264
O158  O     O_R   0.756330 0.053790 0.314650 -0.637402
O159  O     O_R   0.243670 0.314650 0.946210 -0.621874
O160  O     O_R   0.314650 0.256330 0.446210 -0.627407
O161  O     O_R   0.756330 0.685350 0.053790 -0.635688
O162  O     O_R   0.243670 0.053790 0.314650 -0.627044
O163  O     O_R   0.756330 0.946210 0.685350 -0.636309
O164  O     O_R   0.756330 0.314650 0.053790 -0.627511
O165  O     O_R   0.243670 0.685350 0.946210 -0.626762
O166  O     O_R   0.756330 0.053790 0.685350 -0.628003
O167  O     O_R   0.243670 0.946210 0.314650 -0.621514
O168  O     O_R   0.756330 0.685350 0.946210 -0.627492
O169  O     O_R   0.243670 0.314650 0.053790 -0.621977
O170  O     O_R   0.756330 0.946210 0.314650 -0.620699
O171  O     O_R   0.685350 0.743670 0.553790 -0.623763
O172  O     O_R   0.243670 0.053790 0.685350 -0.628170
O173  O     O_R   0.314650 0.946210 0.243670 -0.618142
O174  O     O_R   0.685350 0.053790 0.756330 -0.634224
O175  O     O_R   0.053790 0.314650 0.243670 -0.628606
O176  O     O_R   0.946210 0.685350 0.756330 -0.638063
O177  O     O_R   0.685350 0.053790 0.243670 -0.627099
O178  O     O_R   0.314650 0.946210 0.756330 -0.613371
O179  O     O_R   0.946210 0.685350 0.243670 -0.623700
O180  O     O_R   0.053790 0.314650 0.756330 -0.614660
O181  O     O_R   0.685350 0.946210 0.756330 -0.626290
O182  O     O_R   0.553790 0.743670 0.685350 -0.620400
O183  O     O_R   0.314650 0.053790 0.243670 -0.638134
O184  O     O_R   0.946210 0.314650 0.756330 -0.622388
O185  O     O_R   0.053790 0.685350 0.243670 -0.621343
O186  O     O_R   0.314650 0.053790 0.756330 -0.621959
O187  O     O_R   0.685350 0.946210 0.243670 -0.631026
O188  O     O_R   0.053790 0.685350 0.756330 -0.625678
O189  O     O_R   0.946210 0.314650 0.243670 -0.624575
O190  O     O_R   0.053790 0.256330 0.814650 -0.625990
O191  O     O_R   0.946210 0.743670 0.185350 -0.619374
O192  O     O_R   0.185350 0.256330 0.053790 -0.622796
Zn1   Zn    Zn3+2 0.500000 0.210530 0.289470 0.889533
Zn2   Zn    Zn3+2 0.210530 0.289470 0.500000 0.881559
Zn3   Zn    Zn3+2 0.789470 0.500000 0.710530 0.886368
Zn4   Zn    Zn3+2 0.210530 0.500000 0.289470 0.883932
Zn5   Zn    Zn3+2 0.789470 0.289470 0.500000 0.892263
Zn6   Zn    Zn3+2 0.210530 0.710530 0.500000 0.880272
Zn7   Zn    Zn3+2 0.789470 0.500000 0.289470 0.876476
Zn8   Zn    Zn3+2 0.210530 0.500000 0.710530 0.884141
Zn9   Zn    Zn3+2 0.289470 0.500000 0.789470 0.882498
Zn10  Zn    Zn3+2 0.710530 0.500000 0.210530 0.888507
Zn11  Zn    Zn3+2 0.500000 0.289470 0.789470 0.879073
Zn12  Zn    Zn3+2 0.500000 0.789470 0.710530 0.884071
Zn13  Zn    Zn3+2 0.500000 0.710530 0.210530 0.893356
Zn14  Zn    Zn3+2 0.710530 0.500000 0.789470 0.878504
Zn15  Zn    Zn3+2 0.289470 0.500000 0.210530 0.881466
Zn16  Zn    Zn3+2 0.500000 0.710530 0.789470 0.879176
Zn17  Zn    Zn3+2 0.500000 0.289470 0.210530 0.886115
Zn18  Zn    Zn3+2 1.000000 0.710530 0.289470 0.881000
Zn19  Zn    Zn3+2 1.000000 0.289470 0.710530 0.886506
Zn20  Zn    Zn3+2 0.710530 0.710530 0.000000 0.885873
Zn21  Zn    Zn3+2 0.289470 0.289470 0.000000 0.883294
Zn22  Zn    Zn3+2 1.000000 0.710530 0.710530 0.881824
Zn23  Zn    Zn3+2 0.710530 0.210530 0.500000 0.889628
Zn24  Zn    Zn3+2 1.000000 0.289470 0.289470 0.885360
Zn25  Zn    Zn3+2 0.289470 0.710530 0.000000 0.887077
Zn26  Zn    Zn3+2 0.710530 0.289470 0.000000 0.882257
Zn27  Zn    Zn3+2 0.289470 0.000000 0.710530 0.887545
Zn28  Zn    Zn3+2 0.710530 0.000000 0.289470 0.882235
Zn29  Zn    Zn3+2 0.289470 0.000000 0.289470 0.877900
Zn30  Zn    Zn3+2 0.710530 0.000000 0.710530 0.881826
Zn31  Zn    Zn3+2 1.000000 0.210530 0.789470 0.884601
Zn32  Zn    Zn3+2 1.000000 0.789470 0.210530 0.889790
Zn33  Zn    Zn3+2 0.210530 0.210530 0.000000 0.882529
Zn34  Zn    Zn3+2 0.289470 0.789470 0.500000 0.877864
Zn35  Zn    Zn3+2 0.789470 0.789470 0.000000 0.878303
Zn36  Zn    Zn3+2 1.000000 0.210530 0.210530 0.883780
Zn37  Zn    Zn3+2 1.000000 0.789470 0.789470 0.879469
Zn38  Zn    Zn3+2 0.789470 0.210530 0.000000 0.891046
Zn39  Zn    Zn3+2 0.210530 0.789470 0.000000 0.879860
Zn40  Zn    Zn3+2 0.789470 0.000000 0.210530 0.883936
Zn41  Zn    Zn3+2 0.210530 0.000000 0.789470 0.888035
Zn42  Zn    Zn3+2 0.789470 0.000000 0.789470 0.878828
Zn43  Zn    Zn3+2 0.210530 0.000000 0.210530 0.886210
Zn44  Zn    Zn3+2 0.500000 0.210530 0.710530 0.886796
Zn45  Zn    Zn3+2 0.500000 0.789470 0.289470 0.886037
Zn46  Zn    Zn3+2 0.289470 0.210530 0.500000 0.889773
Zn47  Zn    Zn3+2 0.710530 0.789470 0.500000 0.881287
Zn48  Zn    Zn3+2 0.789470 0.710530 0.500000 0.881055

loop_
_geom_bond_atom_site_label_1
_geom_bond_atom_site_label_2
_ccdc_geom_bond_type
C10   C174  A    
C322  C324  S    
O17   Zn38  S    
C372  H296  S    
C345  C347  S    
C156  C314  S    
C213  H223  S    
C127  C254  S    
C176  C354  S    
C260  H9    S    
C20   C144  A    
O147  Zn18  S    
C106  C479  A    
C364  H271  S    
C284  H70   S    
C171  C343  S    
C65   C465  S    
C197  C396  S    
C337  C338  S    
C89   C196  A    
C79   O134  A    
C192  C385  S    
C177  C356  S    
C356  H258  S    
C28   C139  A    
C377  H304  S    
C288  H82   S    
C419  H408  S    
C52   C144  A    
C311  H147  S    
C70   C180  A    
C297  H104  S    
C101  O121  A    
C104  C204  A    
C242  H444  S    
C420  C421  S    
C166  C333  S    
C471  O73   A    
O155  Zn25  S    
C315  H150  S    
C328  H182  S    
C304  H121  S    
C86   C193  A    
C66   C155  A    
C379  O158  A    
C231  H368  S    
C404  H371  S    
C450  O5    A    
C411  C413  S    
C164  C329  S    
C149  C298  S    
C54   C134  A    
C440  O32   A    
C290  O26   A    
C50   C110  A    
C321  H164  S    
C372  C373  S    
O163  Zn30  S    
C35   O123  A    
C107  C480  A    
C341  H218  S    
O107  Zn5   S    
C7    C423  S    
C386  H326  S    
C332  H192  S    
O49   Zn41  S    
C362  H266  S    
C48   C125  A    
C407  C408  S    
O148  Zn26  S    
C15   C368  S    
O136  Zn11  S    
C255  H479  S    
C18   C177  A    
C414  H400  S    
C34   C127  A    
C67   C453  S    
C40   C138  A    
C14   C151  A    
C77   C181  A    
C380  H309  S    
C355  H250  S    
C242  H445  S    
C376  H306  S    
C62   C457  S    
C392  H345  S    
C85   C101  S    
C368  O157  A    
C369  H283  S    
C270  H41   S    
C339  H211  S    
O192  Zn33  S    
C317  H155  S    
C215  H459  S    
C229  H290  S    
O103  Zn44  S    
C46   O46   A    
C44   C427  S    
C264  H22   S    
O12   Zn37  S    
O74   Zn34  S    
O22   Zn33  S    
C406  H375  S    
C79   O101  A    
C243  H454  S    
O37   Zn37  S    
C24   O24   A    
C283  H74   S    
C431  O169  A    
C346  O155  A    
C234  C236  S    
C106  C214  S    
C382  H314  S    
C385  H329  S    
C228  C229  S    
C399  H361  S    
C29   C451  S    
C95   C188  A    
O146  Zn19  S    
C256  H7    S    
O187  Zn28  S    
C27   C117  A    
C22   C312  S    
C340  H209  S    
C80   C196  A    
C413  H394  S    
C293  H92   S    
C25   C442  S    
C469  O72   A    
C238  H435  S    
C52   C132  A    
C58   C469  S    
C366  H276  S    
C93   C200  A    
C53   C133  A    
C18   C111  A    
C182  C365  S    
C444  O183  A    
C256  H8    S    
C421  H414  S    
C397  H355  S    
C211  H334  S    
C326  H177  S    
C173  C348  S    
C396  H358  S    
O167  Zn29  S    
C417  H404  S    
C402  H364  S    
O70   Zn46  S    
C314  C315  S    
C5    C155  A    
C262  H16   S    
C65   C166  A    
C394  H352  S    
O56   Zn13  S    
C395  H348  S    
C397  H353  S    
C416  H406  S    
C67   C156  A    
C253  H472  S    
C135  O129  A    
O82   Zn9   S    
C47   C115  A    
C294  H102  S    
O78   Zn47  S    
C428  C480  S    
C9    C444  S    
C354  H252  S    
C259  H12   S    
O9    Zn31  S    
C286  H77   S    
C465  O65   A    
C27   C268  S    
C217  H24   S    
C43   C129  A    
C457  O103  A    
C400  H367  S    
C413  H393  S    
C378  H311  S    
C165  C331  S    
C50   C165  A    
C467  O75   A    
C102  C191  A    
C391  H339  S    
C178  C359  S    
C136  C272  S    
C167  C337  S    
C56   C149  A    
C430  O168  A    
C216  C217  S    
C445  O184  A    
C442  O180  A    
C345  H230  S    
C386  H325  S    
C409  H389  S    
O41   Zn31  S    
C459  O79   A    
C86   C198  A    
C402  H365  S    
O42   Zn32  S    
O57   Zn34  S    
C337  H207  S    
C118  C237  S    
C368  O49   A    
C349  H231  S    
C415  H398  S    
O11   Zn38  S    
C464  O78   A    
C251  H466  S    
C100  C189  A    
C20   C446  S    
C381  C382  S    
C260  H11   S    
O5    Zn37  S    
C355  H248  S    
C284  H72   S    
C112  O126  A    
C383  C384  S    
C462  O62   A    
C185  C372  S    
C323  O153  A    
C461  O61   A    
C448  O160  A    
O25   Zn43  S    
O38   Zn36  S    
C274  H51   S    
C290  O150  A    
C333  C336  S    
O39   Zn41  S    
C201  O141  A    
C236  H429  S    
C229  H312  S    
C79   C84   S    
C9    C116  A    
C31   C107  A    
C3    C429  S    
C344  H219  S    
C36   C126  A    
C371  H288  S    
C319  H160  S    
C233  H412  S    
O126  Zn16  S    
C315  H148  S    
C423  O34   A    
C105  C211  S    
O180  Zn19  S    
C16   C184  A    
O80   Zn46  S    
C418  H411  S    
C103  C448  S    
C364  H272  S    
C440  O178  A    
O94   Zn1   S    
O118  Zn4   S    
C370  H291  S    
C423  O163  A    
C321  H166  S    
C174  C350  S    
C385  H328  S    
O114  Zn7   S    
C395  H350  S    
C416  C417  S    
C90   O106  A    
C359  H262  S    
O4    Zn36  S    
C280  H59   S    
C53   C143  A    
C20   C125  A    
C289  H91   S    
C235  O18   A    
C33   C149  A    
C365  C366  S    
C383  H324  S    
C332  H194  S    
C342  H216  S    
C399  H360  S    
C295  H97   S    
C162  C325  S    
C97   C195  A    
C6    C412  S    
C255  H477  S    
C231  H346  S    
C39   C131  A    
C246  O17   A    
C241  H449  S    
C64   C159  A    
C336  H198  S    
C348  C349  S    
C312  O37   A    
C442  O190  A    
C120  C241  S    
C422  C424  S    
C392  H347  S    
C351  H239  S    
C350  C351  S    
C320  H167  S    
C63   C152  A    
C94   C205  A    
C130  C261  S    
C271  H39   S    
C394  C395  S    
C310  H138  S    
O28   Zn43  S    
O48   Zn40  S    
C104  C459  S    
O89   Zn45  S    
C223  O116  A    
C327  C328  S    
C447  O186  A    
C350  H240  S    
C407  H384  S    
C135  O114  A    
C82   C188  A    
C359  C360  S    
C23   C441  S    
O47   Zn31  S    
C134  C270  S    
C323  O22   A    
O43   Zn43  S    
C464  O64   A    
C225  H190  S    
C227  H235  S    
C409  C410  S    
C277  H54   S    
C245  H458  S    
C248  H464  S    
C69   C452  S    
C243  C244  S    
C252  C253  S    
C443  O29   A    
C59   C147  A    
C441  O191  A    
C16   C379  S    
C455  O83   A    
C4    C109  A    
C278  H63   S    
C202  C405  S    
C351  H237  S    
C393  H343  S    
C238  H433  S    
C347  H227  S    
C6    C111  A    
C434  O25   A    
C92   C210  A    
C327  H184  S    
C89   C203  A    
C410  H387  S    
C233  H423  S    
C421  H416  S    
C375  H299  S    
C458  O71   A    
O166  Zn30  S    
C370  C371  S    
C348  H234  S    
O144  Zn25  S    
O190  Zn31  S    
C257  O47   A    
O36   Zn43  S    
C282  H64   S    
O172  Zn27  S    
C357  O156  A    
C19   C123  A    
C318  C319  S    
C98   C199  A    
C281  H67   S    
C438  O12   A    
C168  O42   A    
C384  H321  S    
C145  C292  S    
C364  H270  S    
C30   C167  A    
C274  C275  S    
C273  H44   S    
C387  H336  S    
O116  Zn23  S    
C261  C262  S    
C14   C120  A    
C286  H75   S    
C198  C398  S    
C275  H50   S    
C74   C184  A    
C5    C110  A    
C45   C156  A    
C334  O115  A    
C269  H31   S    
O142  Zn22  S    
C419  H409  S    
C61   C456  S    
C360  H259  S    
C5    C449  S    
C266  H27   S    
C309  H141  S    
C299  H108  S    
C236  H428  S    
C269  H33   S    
C338  H203  S    
C409  H391  S    
O105  Zn12  S    
C184  C370  S    
C249  H461  S    
C132  C265  S    
C381  H318  S    
O23   Zn42  S    
C303  H123  S    
C387  H333  S    
C29   C129  A    
C172  C345  S    
C463  O80   A    
C91   C197  A    
C437  O149  A    
C398  C399  S    
C256  C258  S    
C180  C361  S    
C289  H89   S    
C94   C112  S    
C262  H17   S    
C54   C474  S    
C187  C376  S    
O40   Zn40  S    
C159  C478  A    
C278  H62   S    
C326  H176  S    
C91   C204  A    
O35   Zn45  S    
C296  H107  S    
C179  O41   A    
C285  H78   S    
O135  Zn13  S    
C456  O56   A    
O88   Zn8   S    
C95   C206  A    
C471  O100  A    
C441  O179  A    
C123  C248  S    
C237  C238  S    
C116  C232  S    
C10   C432  S    
C353  H243  S    
C456  O104  A    
C309  H140  S    
C88   C437  S    
C313  H143  S    
C371  H286  S    
C295  H99   S    
C298  H114  S    
C83   C202  A    
C67   C164  A    
C454  O84   A    
C314  H151  S    
C407  H385  S    
C330  H187  S    
C133  C267  S    
C131  C263  S    
C472  O76   A    
C428  O44   A    
O108  Zn6   S    
C214  H2    S    
C370  H289  S    
O109  Zn7   S    
C82   C194  A    
O149  Zn45  S    
C61   C162  A    
O60   Zn2   S    
C247  H455  S    
O157  Zn27  S    
C160  C479  A    
C74   C455  S    
C87   C193  A    
C2    O131  A    
C414  H402  S    
C344  H221  S    
C342  H214  S    
C361  H269  S    
C342  H215  S    
C272  C273  S    
C324  H171  S    
O61   Zn17  S    
C346  O7    A    
C41   C235  S    
C222  C225  S    
C340  H208  S    
C64   C153  A    
C432  O170  A    
C334  O127  A    
O101  Zn3   S    
C358  H253  S    
O15   Zn35  S    
O92   Zn4   S    
O102  Zn4   S    
C461  O99   A    
C252  H475  S    
O1    Zn1   S    
C3    C180  A    
C234  H432  S    
C226  H279  S    
C271  H37   S    
C388  H331  S    
C81   C195  A    
C12   C119  A    
C318  H162  S    
C293  H93   S    
O8    Zn32  S    
C47   C335  S    
C1    C95   S    
O84   Zn34  S    
C356  C358  S    
C424  H420  S    
C219  H79   S    
C403  C404  S    
C322  H173  S    
C408  H381  S    
C261  H19   S    
C307  H134  S    
C276  C277  S    
C225  H179  S    
C245  H460  S    
O140  Zn20  S    
C235  O144  A    
C325  H180  S    
C411  H396  S    
C60   C140  A    
C23   C126  A    
C469  O102  A    
O75   Zn23  S    
C301  O151  A    
C161  C322  S    
C305  C306  S    
C91   C470  S    
O170  Zn28  S    
O151  Zn24  S    
C311  C313  S    
C34   C141  A    
O176  Zn22  S    
O16   Zn33  S    
C426  O138  A    
C212  O142  A    
C151  C303  S    
C356  H256  S    
C375  H297  S    
C448  O90   A    
C476  O85   A    
C22   C173  A    
C92   C202  A    
C160  C320  S    
C16   C122  A    
C68   O68   A    
C379  O48   A    
C231  H357  S    
C363  H273  S    
C214  H470  S    
C29   C140  A    
C428  O166  A    
C42   C246  S    
C335  O154  A    
C80   C186  A    
C66   C165  A    
C281  H69   S    
O181  Zn30  S    
C24   O111  A    
C260  H10   S    
C434  O173  A    
C48   C132  A    
C276  H56   S    
O66   Zn13  S    
C129  C259  S    
C432  O40   A    
O90   Zn2   S    
C433  O39   A    
C218  H113  S    
O106  Zn4   S    
O73   Zn14  S    
C8    C163  A    
C102  C209  A    
C244  H450  S    
C275  H48   S    
C113  O110  A    
C147  C294  S    
C455  O55   A    
C3    C108  A    
C212  O51   A    
C292  H95   S    
C60   C145  A    
C181  C363  S    
C244  H451  S    
C196  C394  S    
C14   C435  S    
C465  O91   A    
C26   C118  A    
C297  H103  S    
C403  H374  S    
C220  H157  S    
C427  O10   A    
C76   C174  A    
C307  H136  S    
C298  H111  S    
C315  H149  S    
C10   C117  A    
C304  H122  S    
C35   C92   S    
C188  C378  S    
C56   C137  A    
C45   C116  A    
C119  C239  S    
C332  H193  S    
O55   Zn5   S    
C406  H376  S    
C454  O54   A    
C64   C461  S    
C470  O182  A    
C99   C198  A    
C453  O53   A    
C128  C256  S    
C450  O188  A    
O58   Zn11  S    
O132  Zn16  S    
C435  O174  A    
C7    C171  A    
O6    Zn38  S    
C8    C443  S    
C359  H263  S    
C306  H127  S    
C87   C208  A    
C240  H439  S    
C279  O148  A    
C142  C285  S    
C114  C228  S    
C460  O60   A    
C51   C201  S    
C358  H255  S    
C168  O137  A    
O123  Zn13  S    
C51   C109  A    
C226  C227  S    
C81   C124  S    
C49   C133  A    
C283  C284  S    
C380  H310  S    
O185  Zn18  S    
C242  H446  S    
C265  H30   S    
O95   Zn12  S    
C452  O52   A    
C87   C426  S    
O91   Zn44  S    
C71   C467  S    
C21   C172  A    
C369  H282  S    
C429  O43   A    
C331  H196  S    
O112  Zn48  S    
C4    C154  A    
C240  H440  S    
C389  H340  S    
C143  C287  S    
C55   C141  A    
C227  H246  S    
C329  H189  S    
O183  Zn29  S    
C440  C479  S    
C424  H421  S    
C283  H73   S    
C282  H65   S    
C239  C240  S    
O30   Zn33  S    
C343  C344  S    
O175  Zn24  S    
C439  O33   A    
C453  O94   A    
C477  O86   A    
C258  H4    S    
C263  C264  S    
O13   Zn47  S    
C218  H101  S    
C420  H417  S    
C287  H85   S    
C340  H210  S    
C190  O140  A    
C68   C96   S    
O160  Zn46  S    
O79   Zn48  S    
C343  H222  S    
C374  H300  S    
C373  H294  S    
C7    C114  A    
C317  H153  S    
C193  C387  S    
C365  H278  S    
C462  O98   A    
C426  O136  A    
C397  H354  S    
C449  O187  A    
C6    C170  A    
C294  C295  S    
O115  Zn6   S    
C13   O13   A    
O29   Zn42  S    
C417  H403  S    
C433  O172  A    
O51   Zn37  S    
C264  H20   S    
C234  H431  S    
C57   O57   A    
C55   C136  A    
C49   C123  A    
C77   C460  S    
C263  H23   S    
C137  C274  S    
C44   C147  A    
C226  H268  S    
C84   C191  A    
C121  C243  S    
C377  H303  S    
O186  Zn27  S    
C75   C454  S    
C124  O130  A    
C21   C122  A    
O68   Zn23  S    
C463  O63   A    
O93   Zn3   S    
C115  C230  S    
C100  C334  S    
C258  H5    S    
O124  Zn14  S    
C291  H88   S    
C396  H356  S    
C300  H118  S    
O125  Zn15  S    
C44   C128  A    
C57   C97   S    
C280  H60   S    
C413  H392  S    
C362  H264  S    
C253  H474  S    
C15   C183  A    
C40   C431  S    
C418  H413  S    
C363  C364  S    
C71   C169  A    
C299  H109  S    
C194  C389  S    
C18   C224  S    
C329  H191  S    
C308  H131  S    
C249  H462  S    
C217  H35   S    
C447  O20   A    
C402  H366  S    
C108  C218  S    
C337  H206  S    
O2    Zn1   S    
O153  Zn21  S    
C305  H130  S    
O173  Zn29  S    
C408  H383  S    
C372  H295  S    
C186  C374  S    
C71   C178  A    
O45   Zn32  S    
C382  H315  S    
C208  C418  S    
C276  H58   S    
C247  H457  S    
C38   C119  A    
C436  O14   A    
C247  H456  S    
C100  C210  A    
C314  H152  S    
C209  C420  S    
C296  H106  S    
C102  C223  S    
C272  H45   S    
C451  O189  A    
C274  H52   S    
C404  H372  S    
C239  H443  S    
C468  O69   A    
C378  H313  S    
C279  O27   A    
C288  H81   S    
C237  H436  S    
C62   C151  A    
C297  H105  S    
C307  C308  S    
C352  C353  S    
C355  H249  S    
C344  H220  S    
C371  H287  S    
C396  C397  S    
C328  H181  S    
C41   C106  A    
C366  H277  S    
C33   C438  S    
O96   Zn8   S    
C460  O70   A    
C357  O6    A    
O7    Zn39  S    
C316  H158  S    
C429  O167  A    
C445  O9    A    
C250  C251  S    
C309  C310  S    
O83   Zn23  S    
C63   C462  S    
C475  O82   A    
C321  H165  S    
C31   C179  S    
C476  O93   A    
C395  H349  S    
C158  C316  S    
C2    C89   S    
C175  C352  S    
C267  H34   S    
C285  C286  S    
C362  H265  S    
C12   C150  A    
C13   O112  A    
C200  C403  S    
C70   C468  S    
O19   Zn40  S    
C324  H170  S    
C287  C288  S    
O179  Zn18  S    
C59   C139  A    
C287  H84   S    
C228  H335  S    
C153  C307  S    
C293  H94   S    
C475  O96   A    
O63   Zn2   S    
O117  Zn5   S    
C72   C463  S    
C443  O181  A    
C78   C185  A    
C333  H200  S    
O14   Zn36  S    
C272  H47   S    
C415  H397  S    
C319  H161  S    
C270  H40   S    
C310  H139  S    
C37   C279  S    
C246  O145  A    
C35   O35   A    
O129  Zn10  S    
O143  Zn24  S    
C54   C142  A    
C219  H90   S    
C263  H25   S    
C264  H21   S    
C404  H370  S    
C245  C247  S    
C109  C220  S    
C414  C415  S    
C21   C301  S    
C239  H442  S    
C302  H116  S    
C98   C207  A    
C312  O152  A    
C466  O66   A    
C301  O38   A    
C34   C390  S    
O177  Zn28  S    
O141  Zn21  S    
C105  C478  A    
C110  C222  S    
C398  H363  S    
C268  O45   A    
O178  Zn27  S    
C248  C249  S    
C22   C121  A    
C37   C161  A    
C385  C386  S    
C266  H26   S    
C88   C192  A    
O188  Zn22  S    
C280  H61   S    
C125  C250  S    
O21   Zn35  S    
C393  H342  S    
C439  O177  A    
C449  O19   A    
C30   C108  A    
C238  H434  S    
C111  C226  S    
O152  Zn22  S    
C366  H275  S    
C83   C189  A    
C211  H426  S    
C265  H29   S    
C365  H280  S    
C410  H388  S    
C392  C393  S    
C421  H415  S    
C292  C293  S    
C405  C406  S    
O85   Zn14  S    
C28   C450  S    
C427  O165  A    
C417  H405  S    
C11   C433  S    
O26   Zn39  S    
O133  Zn15  S    
C300  H119  S    
C349  H233  S    
C262  H15   S    
C431  O192  A    
O27   Zn38  S    
C11   C175  A    
C394  H351  S    
C348  H236  S    
O87   Zn7   S    
C99   C208  A    
O18   Zn39  S    
C302  H117  S    
O139  Zn19  S    
C73   C176  A    
C277  H55   S    
O59   Zn48  S    
C25   C127  A    
C30   C168  S    
C230  C231  S    
C273  H43   S    
C170  C341  S    
C222  H212  S    
C354  H251  S    
C320  C321  S    
C291  H86   S    
C325  H178  S    
C267  C269  S    
C4    C447  S    
C286  H76   S    
C124  O113  A    
C275  H49   S    
O171  Zn47  S    
C201  O30   A    
C53   C476  S    
C439  C478  S    
C398  H362  S    
C216  H46   S    
C232  C233  S    
C406  H377  S    
C179  O139  A    
C220  C221  S    
C360  H260  S    
C228  H323  S    
C266  H28   S    
C320  H169  S    
C325  C326  S    
C50   C190  S    
C42   C105  A    
C338  H204  S    
C308  H133  S    
C27   C182  A    
C113  O120  A    
O64   Zn48  S    
C350  H241  S    
C451  O4    A    
C62   C161  A    
C26   C181  A    
O182  Zn12  S    
C473  O87   A    
C349  H232  S    
O24   Zn46  S    
C215  H448  S    
O184  Zn19  S    
O158  Zn28  S    
O174  Zn30  S    
C403  H373  S    
O53   Zn17  S    
C389  C391  S    
C330  H186  S    
C270  C271  S    
C316  C317  S    
C224  O143  A    
O156  Zn26  S    
C345  H229  S    
C339  C340  S    
C284  H71   S    
C97   C205  A    
C415  H399  S    
C206  C414  S    
C352  H245  S    
C28   C128  A    
C203  C407  S    
C210  C422  S    
C2    O2    A    
O122  Zn11  S    
O127  Zn34  S    
C1    O1    A    
C353  H242  S    
C39   C137  A    
C288  H83   S    
C467  O67   A    
O120  Zn9   S    
O119  Zn3   S    
O128  Zn17  S    
C75   C173  A    
C24   C99   S    
C382  H316  S    
C329  C330  S    
C139  C278  S    
C17   C212  S    
C313  H142  S    
O54   Zn6   S    
C338  H205  S    
C38   C290  S    
C140  C281  S    
C331  C332  S    
C328  H183  S    
C178  C480  A    
C377  H305  S    
C56   C471  S    
C32   C130  A    
C303  H125  S    
C330  H188  S    
C41   C152  A    
C227  H257  S    
C341  C342  S    
C84   C200  A    
C85   C192  A    
C104  C185  A    
O130  Zn9   S    
C391  H337  S    
C82   C135  S    
C273  H42   S    
C230  H379  S    
C19   C445  S    
C43   C145  A    
C422  H424  S    
C384  H319  S    
C251  H467  S    
O10   Zn39  S    
C353  H244  S    
C73   C464  S    
C390  O159  A    
C277  H53   S    
C405  H378  S    
C422  H422  S    
C32   C148  A    
C474  O97   A    
O104  Zn45  S    
C295  H98   S    
C222  H224  S    
C88   C207  A    
C324  H172  S    
C255  H478  S    
C31   C169  A    
O150  Zn25  S    
C240  H441  S    
C217  H13   S    
C336  H197  S    
C207  C416  S    
C399  H359  S    
C358  H254  S    
C376  H307  S    
C75   C183  A    
C389  H341  S    
C13   C98   S    
C252  H476  S    
C25   C136  A    
O97   Zn7   S    
C141  C283  S    
O154  Zn20  S    
C388  H332  S    
C310  H137  S    
C26   C257  S    
C374  C375  S    
C229  H301  S    
C318  H163  S    
C85   C199  A    
C446  O185  A    
C191  C383  S    
C107  C216  S    
C303  C304  S    
C306  H128  S    
O71   Zn47  S    
O86   Zn15  S    
C58   C148  A    
C189  C381  S    
C248  H465  S    
C232  H427  S    
C459  O171  A    
C304  H120  S    
C322  H174  S    
C78   C197  A    
C408  H382  S    
C261  H18   S    
C383  H322  S    
C452  O95   A    
C61   C150  A    
O99   Zn1   S    
O50   Zn36  S    
C112  O105  A    
C8    C115  A    
C17   C176  A    
C411  H395  S    
C23   C134  A    
C361  H267  S    
C223  O117  A    
C216  H57   S    
C33   C131  A    
C458  O59   A    
C468  O74   A    
C430  O3    A    
C77   C175  A    
C393  H344  S    
C190  O31   A    
C241  H447  S    
C341  H217  S    
C347  H228  S    
C472  O88   A    
C224  O50   A    
C360  H261  S    
C103  C186  A    
C401  O161  A    
C63   C160  A    
C410  H386  S    
C76   C182  A    
C233  H401  S    
C250  H471  S    
C68   O107  A    
C17   C114  A    
C195  C392  S    
C374  H302  S    
O32   Zn41  S    
C444  O28   A    
O69   Zn6   S    
C148  C296  S    
C126  C252  S    
C155  C311  S    
O134  Zn14  S    
C213  H1    S    
C416  H407  S    
C305  H129  S    
C302  H115  S    
C169  C339  S    
C36   C401  S    
C333  H202  S    
C42   C153  A    
C225  H201  S    
C94   C187  A    
C400  C402  S    
O65   Zn11  S    
C380  H308  S    
O100  Zn3   S    
C254  H480  S    
C39   C430  S    
C214  C215  S    
C32   C436  S    
C70   C167  A    
C285  H80   S    
C72   C177  A    
C281  C282  S    
C292  H96   S    
C269  H32   S    
C291  H87   S    
C244  H452  S    
C419  H410  S    
C150  C300  S    
O145  Zn26  S    
C391  H338  S    
C138  C276  S    
C251  H468  S    
O67   Zn5   S    
C72   C170  A    
C367  H285  S    
C12   C434  S    
C146  O125  A    
C40   C130  A    
C65   C154  A    
O189  Zn24  S    
C60   C473  S    
C425  O11   A    
O33   Zn40  S    
C204  C409  S    
C78   C157  S    
C390  O16   A    
C237  H438  S    
C159  C318  S    
O165  Zn25  S    
C335  O21   A    
C57   O108  A    
C80   C146  S    
C319  H159  S    
C69   C158  A    
C43   C425  S    
C163  C327  S    
O168  Zn20  S    
C220  H168  S    
C205  C411  S    
C384  H320  S    
C326  H175  S    
O81   Zn10  S    
C352  H247  S    
C388  H330  S    
C221  H124  S    
O159  Zn21  S    
C300  C302  S    
C294  H100  S    
O62   Zn16  S    
C400  H369  S    
C211  C213  S    
O113  Zn8   S    
C58   C138  A    
C354  C355  S    
O31   Zn35  S    
C221  H146  S    
C122  C245  S    
C351  H238  S    
C93   C209  A    
C259  C260  S    
O161  Zn20  S    
C278  C280  S    
C249  H463  S    
C313  H144  S    
C73   C171  A    
C215  H437  S    
C146  O118  A    
C96   C194  A    
C412  O162  A    
C254  C255  S    
C327  H185  S    
C1    O128  A    
O3    Zn35  S    
O111  Zn2   S    
C401  O15   A    
C369  H281  S    
C376  C377  S    
C339  H213  S    
C331  H195  S    
C418  C419  S    
C265  C266  S    
O164  Zn26  S    
C347  H226  S    
C83   C90   S    
C296  C297  S    
C19   C143  A    
C15   C121  A    
C470  O132  A    
C59   C472  S    
C74   C172  A    
O138  Zn44  S    
C282  H66   S    
C477  O92   A    
C306  H126  S    
C96   C206  A    
C69   C163  A    
C199  C400  S    
C405  H380  S    
O46   Zn44  S    
C45   C323  S    
C9    C164  A    
C236  H430  S    
C157  O124  A    
C363  H274  S    
C66   C466  S    
C343  H225  S    
C420  H418  S    
C144  C289  S    
C474  O81   A    
O169  Zn21  S    
C361  C362  S    
C336  H199  S    
C101  O109  A    
C254  H3    S    
O137  Zn18  S    
C373  H293  S    
C267  H36   S    
C221  H135  S    
C36   C142  A    
C446  O8    A    
C257  O146  A    
C425  O164  A    
C438  O176  A    
C52   C477  S    
C436  O175  A    
C271  H38   S    
C48   C346  S    
C457  O58   A    
O77   Zn10  S    
C49   C357  S    
C11   C118  A    
C412  O36   A    
C218  C219  S    
C46   C93   S    
C117  C234  S    
C241  C242  S    
C473  O77   A    
O131  Zn17  S    
O191  Zn32  S    
C299  H110  S    
C466  O89   A    
C289  C291  S    
C424  H419  S    
C308  H132  S    
O121  Zn10  S    
C76   C458  S    
C367  C369  S    
C37   C120  A    
C219  H68   S    
O98   Zn12  S    
C103  C203  A    
O44   Zn42  S    
C157  O119  A    
C258  H6    S    
C259  H14   S    
O110  Zn8   S    
C437  O135  A    
C154  C309  S    
C316  H156  S    
C38   C162  A    
O20   Zn41  S    
C232  H425  S    
C268  O147  A    
C253  H473  S    
O72   Zn15  S    
C298  C299  S    
O162  Zn29  S    
C435  O23   A    
C152  C305  S    
C90   O133  A    
C373  H292  S    
O76   Zn9   S    
C317  H154  S    
C51   C166  A    
C55   C475  S    
C243  H453  S    
C311  H145  S    
C183  C367  S    
C367  H284  S    
O52   Zn16  S    
C375  H298  S    
C378  C380  S    
C386  H327  S    
C81   C187  A    
C250  H469  S    
C46   O122  A    
C381  H317  S    
C387  C388  S    
C213  H112  S    
C86   C113  S    
C230  H390  S    
C47   C158  A    
O34   Zn42  S    
