data_mof_unit_4837.cif
_audit_creation_date              2013-03-05T15:50:10-0500
_audit_creation_method            fapswitch 2.2
_symmetry_space_group_name_H-M    P1
_symmetry_Int_Tables_number       1
_space_group_crystal_system       triclinic
_cell_length_a                    18.321032
_cell_length_b                    25.864262
_cell_length_c                    18.278415
_cell_angle_alpha                 90.150818
_cell_angle_beta                  89.96578
_cell_angle_gamma                 89.901285
_cell_volume                      8661.36478537

loop_
_atom_site_label
_atom_site_type_symbol
_atom_site_description
_atom_site_fract_x
_atom_site_fract_y
_atom_site_fract_z
_atom_type_partial_charge
Zn1   Zn    Zn3+2 0.249990 0.293780 0.913250 1.018718
Zn2   Zn    Zn3+2 0.249990 0.706220 0.086750 1.003332
Zn3   Zn    Zn3+2 0.249990 0.706220 0.913250 1.006118
Zn4   Zn    Zn3+2 0.249990 0.293780 0.086750 1.013008
Zn5   Zn    Zn3+2 0.749990 0.793780 0.413250 1.031123
Zn6   Zn    Zn3+2 0.749990 0.206220 0.586750 1.020170
Zn7   Zn    Zn3+2 0.749990 0.206220 0.413250 1.017169
Zn8   Zn    Zn3+2 0.749990 0.793780 0.586750 0.985671
Zn9   Zn    Zn3+2 0.336760 0.206240 0.000000 1.002351
Zn10  Zn    Zn3+2 0.336760 0.793760 0.000000 1.016123
Zn11  Zn    Zn3+2 0.836760 0.706240 0.500000 1.006136
Zn12  Zn    Zn3+2 0.836760 0.293760 0.500000 0.994013
Zn13  Zn    Zn3+2 0.163250 0.206230 0.000000 0.955364
Zn14  Zn    Zn3+2 0.163250 0.793770 0.000000 0.959671
Zn15  Zn    Zn3+2 0.663250 0.706230 0.500000 0.980407
Zn16  Zn    Zn3+2 0.663250 0.293770 0.500000 0.968285
O1    O     O_3   0.249990 0.250010 0.000000 -0.503351
O2    O     O_3   0.249990 0.749990 0.000000 -0.502508
O3    O     O_3   0.749990 0.750010 0.500000 -0.505588
O4    O     O_3   0.749990 0.249990 0.500000 -0.505451
O5    O     O_R   0.335430 0.280650 0.146160 -0.598395
O6    O     O_R   0.335430 0.719350 0.853840 -0.635764
O7    O     O_R   0.335430 0.719350 0.146160 -0.602195
O8    O     O_R   0.335430 0.280650 0.853840 -0.602016
O9    O     O_R   0.835430 0.780650 0.646160 -0.633946
O10   O     O_R   0.835430 0.219350 0.353840 -0.604945
O11   O     O_R   0.835430 0.219350 0.646160 -0.584636
O12   O     O_R   0.835430 0.780650 0.353840 -0.581245
O13   O     O_R   0.164550 0.280640 0.853840 -0.653342
O14   O     O_R   0.164550 0.719360 0.146160 -0.648178
O15   O     O_R   0.164550 0.719360 0.853840 -0.636662
O16   O     O_R   0.164550 0.280640 0.146160 -0.645381
O17   O     O_R   0.664550 0.780640 0.353840 -0.616746
O18   O     O_R   0.664550 0.219360 0.646160 -0.618060
O19   O     O_R   0.664550 0.219360 0.353840 -0.643853
O20   O     O_R   0.664550 0.780640 0.646160 -0.634722
O21   O     O_R   0.396160 0.219380 0.914560 -0.630362
O22   O     O_R   0.396160 0.780620 0.085440 -0.629196
O23   O     O_R   0.396160 0.780620 0.914560 -0.605395
O24   O     O_R   0.396160 0.219380 0.085440 -0.644249
O25   O     O_R   0.896160 0.719380 0.414560 -0.665811
O26   O     O_R   0.896160 0.280620 0.585440 -0.650419
O27   O     O_R   0.896160 0.280620 0.414560 -0.633585
O28   O     O_R   0.896160 0.719380 0.585440 -0.611539
O29   O     O_R   0.103840 0.219370 0.085450 -0.636828
O30   O     O_R   0.103840 0.780630 0.914550 -0.638540
O31   O     O_R   0.103840 0.780630 0.085450 -0.635354
O32   O     O_R   0.103840 0.219370 0.914550 -0.638170
O33   O     O_R   0.603840 0.719370 0.585450 -0.634290
O34   O     O_R   0.603840 0.280630 0.414550 -0.638282
O35   O     O_R   0.603840 0.280630 0.585450 -0.635858
O36   O     O_R   0.603840 0.719370 0.414550 -0.643221
O37   O     O_R   0.310730 0.133160 0.000000 -0.636795
O38   O     O_R   0.310730 0.866840 0.000000 -0.641275
O39   O     O_R   0.810730 0.633160 0.500000 -0.626666
O40   O     O_R   0.810730 0.366840 0.500000 -0.642621
O41   O     O_R   0.249970 0.366860 0.060720 -0.633257
O42   O     O_R   0.249970 0.633140 0.939280 -0.635231
O43   O     O_R   0.249970 0.633140 0.060720 -0.627131
O44   O     O_R   0.249970 0.366860 0.939280 -0.610092
O45   O     O_R   0.749970 0.866860 0.560720 -0.663202
O46   O     O_R   0.749970 0.133140 0.439280 -0.606490
O47   O     O_R   0.749970 0.133140 0.560720 -0.655608
O48   O     O_R   0.749970 0.866860 0.439280 -0.605753
O49   O     O_R   0.189290 0.133150 0.000000 -0.637800
O50   O     O_R   0.189290 0.866850 0.000000 -0.636963
O51   O     O_R   0.689290 0.633150 0.500000 -0.635814
O52   O     O_R   0.689290 0.366850 0.500000 -0.637588
C1    C     C_R   0.389937 0.250091 0.139797 0.836721
C2    C     C_R   0.390379 0.749398 0.860669 0.915881
C3    C     C_R   0.390336 0.749257 0.139325 0.916508
C4    C     C_R   0.389184 0.249573 0.859512 0.911586
C5    C     C_R   0.889310 0.749628 0.640313 0.924277
C6    C     C_R   0.889973 0.249592 0.360354 0.919295
C7    C     C_R   0.889978 0.249949 0.639718 0.834748
C8    C     C_R   0.889851 0.749925 0.360211 0.834149
C9    C     C_R   0.110264 0.249961 0.860165 0.757231
C10   C     C_R   0.109954 0.749859 0.139578 0.761925
C11   C     C_R   0.110254 0.750075 0.860024 0.768938
C12   C     C_R   0.110126 0.250158 0.139768 0.768157
C13   C     C_R   0.610178 0.750136 0.360299 0.781504
C14   C     C_R   0.610751 0.250530 0.640298 0.781763
C15   C     C_R   0.610294 0.250096 0.360072 0.764050
C16   C     C_R   0.609965 0.750336 0.639516 0.774871
C17   C     C_R   0.249877 0.109331 0.000249 0.784267
C18   C     C_R   0.250010 0.890604 0.000787 0.777551
C19   C     C_R   0.750095 0.609403 0.499171 0.802575
C20   C     C_R   0.749889 0.390688 0.500584 0.778955
C21   C     C_R   0.249820 0.391317 0.000108 0.906920
C22   C     C_R   0.250523 0.608621 0.999948 0.848010
C23   C     C_R   0.750159 0.891353 0.500091 0.868244
C24   C     C_R   0.750049 0.108656 0.499975 0.886408
C25   C     C_3   0.241944 0.470492 0.079047 -0.445835
C26   C     C_3   0.191218 0.529775 0.948910 -0.443269
C27   C     C_3   0.236600 0.529733 0.077947 -0.483547
C28   C     C_3   0.187151 0.470313 0.953799 -0.536154
C29   C     C_3   0.739738 0.970596 0.578706 -0.503791
C30   C     C_3   0.685120 0.029731 0.456667 -0.540031
C31   C     C_3   0.745602 0.029802 0.579297 -0.448193
C32   C     C_3   0.688758 0.970209 0.451732 -0.460635
H1    H     H_    0.191415 0.454552 0.104206 0.199052
H2    H     H_    0.137543 0.546637 0.964862 0.179167
H3    H     H_    0.180600 0.541523 0.094983 0.208968
H4    H     H_    0.134621 0.459140 0.979983 0.196434
H5    H     H_    0.684442 0.959242 0.598195 0.213293
H6    H     H_    0.633885 0.041268 0.485210 0.193955
H7    H     H_    0.696421 0.046133 0.606814 0.204490
H8    H     H_    0.635743 0.953661 0.469987 0.175412
H9    H     H_    0.265113 0.903976 0.864436 0.160460
H10   H     H_    0.239551 0.094409 0.863659 0.138958
H11   H     H_    0.697826 0.405843 0.628662 0.172483
H12   H     H_    0.706350 0.596798 0.628523 0.149917
C33   C     C_3   0.327095 0.468626 0.969143 0.734486
C34   C     C_3   0.328602 0.530077 0.971316 0.676221
C35   C     C_3   0.826930 0.969111 0.468426 0.665146
C36   C     C_3   0.825536 0.030654 0.465403 0.677032
C37   C     C_3   0.251827 0.448996 0.999997 0.006086
C38   C     C_3   0.252502 0.550824 0.999651 -0.002675
C39   C     C_3   0.752061 0.949104 0.499901 0.054913
C40   C     C_3   0.751928 0.050919 0.499777 0.050644
H13   H     H_    0.877619 0.287612 0.975761 0.171906
H14   H     H_    0.886607 0.682839 0.032982 0.164065
H15   H     H_    0.943977 0.610447 0.913474 0.150120
H16   H     H_    0.179208 0.124623 0.322104 0.162272
H17   H     H_    0.655434 0.603805 0.202393 0.173349
H18   H     H_    0.680499 0.370831 0.830706 0.213960
H19   H     H_    0.630215 0.409853 0.223439 0.176384
H20   H     H_    0.712324 0.669092 0.853428 0.192800
C41   C     C_R   0.145669 0.226282 0.710966 -0.198707
C42   C     C_R   0.139492 0.789328 0.282752 -0.199250
C43   C     C_R   0.108416 0.826492 0.747199 -0.160242
C44   C     C_R   0.983320 0.314018 0.127028 -0.212618
C45   C     C_R   0.499057 0.827695 0.357567 -0.210659
C46   C     C_R   0.484645 0.187710 0.624211 -0.206055
C47   C     C_R   0.508894 0.166667 0.348398 -0.211167
C48   C     C_R   0.468438 0.792934 0.612232 -0.204095
C49   C     C_R   0.164170 0.216092 0.638573 -0.228137
C50   C     C_R   0.155032 0.808493 0.352219 -0.262568
C51   C     C_R   0.107626 0.864480 0.693360 -0.210504
C52   C     C_R   0.921274 0.344694 0.119248 -0.276065
C53   C     C_R   0.444966 0.865540 0.357550 -0.264557
C54   C     C_R   0.422643 0.157733 0.614182 -0.256112
C55   C     C_R   0.459546 0.125938 0.344048 -0.262314
C56   C     C_R   0.399925 0.814003 0.598067 -0.266058
C57   C     C_R   0.390814 0.865341 0.303567 0.518425
C58   C     C_R   0.367206 0.157985 0.666791 0.510082
C59   C     C_R   0.405179 0.125898 0.290312 0.518871
C60   C     C_R   0.345977 0.813932 0.652312 0.547936
C61   C     C_R   0.110432 0.215968 0.584431 0.521276
C62   C     C_R   0.101399 0.808169 0.406744 0.523816
C63   C     C_R   0.053028 0.864756 0.639894 0.541131
C64   C     C_R   0.866739 0.344193 0.172945 0.507180
C65   C     C_R   0.391743 0.826873 0.249859 -0.170553
C66   C     C_R   0.375158 0.188095 0.729935 -0.181133
C67   C     C_R   0.401124 0.167042 0.241202 -0.166873
C68   C     C_R   0.361686 0.792476 0.720512 -0.149988
C69   C     C_R   0.038252 0.226345 0.603843 -0.153989
C70   C     C_R   0.032258 0.788663 0.390527 -0.143899
C71   C     C_R   0.999689 0.826369 0.640933 -0.134894
C72   C     C_R   0.875633 0.312992 0.234500 -0.169322
C73   C     C_R   0.446353 0.787877 0.248847 -0.036809
C74   C     C_R   0.437727 0.219385 0.740924 -0.036647
C75   C     C_R   0.451293 0.208770 0.244206 -0.014498
C76   C     C_R   0.430935 0.770250 0.735921 -0.045975
C77   C     C_R   0.018485 0.239328 0.676840 -0.020679
C78   C     C_R   0.015457 0.768274 0.320309 -0.024297
C79   C     C_R   0.998875 0.787592 0.695762 -0.059740
C80   C     C_R   0.938098 0.281048 0.243194 -0.038728
C81   C     C_R   0.073050 0.239118 0.731084 0.070606
C82   C     C_R   0.069890 0.768635 0.265884 0.073923
C83   C     C_R   0.053864 0.787814 0.749559 0.062131
C84   C     C_R   0.992429 0.281602 0.188681 0.087334
C85   C     C_R   0.500571 0.788427 0.303440 0.086590
C86   C     C_R   0.492758 0.219278 0.687051 0.089317
C87   C     C_R   0.505665 0.208521 0.298654 0.082182
C88   C     C_R   0.484893 0.770680 0.681052 0.081856
C89   C     C_R   0.446576 0.748014 0.195469 -0.103310
C90   C     C_R   0.445560 0.251295 0.803647 -0.093960
C91   C     C_R   0.447394 0.250708 0.194566 -0.101306
C92   C     C_R   0.447318 0.748646 0.805244 -0.105467
C93   C     C_R   0.945535 0.251756 0.696469 -0.110101
C94   C     C_R   0.945391 0.748237 0.303569 -0.097682
C95   C     C_R   0.944213 0.748967 0.697527 -0.099905
C96   C     C_R   0.946414 0.248258 0.304606 -0.101188
C97   C     C_R   0.499552 0.707370 0.196884 -0.043849
C98   C     C_R   0.505972 0.285495 0.811512 -0.040884
C99   C     C_R   0.497586 0.292726 0.198266 -0.132134
C100  C     C_R   0.517630 0.727339 0.820989 -0.042696
C101  C     C_R   0.926458 0.265161 0.769771 -0.124494
C102  C     C_R   0.928928 0.727607 0.233091 -0.120309
C103  C     C_R   0.942064 0.710877 0.753866 -0.038647
C104  C     C_R   0.007266 0.214063 0.311346 -0.052428
C105  C     C_R   0.981043 0.262173 0.824336 0.032088
C106  C     C_R   0.983107 0.730528 0.177971 0.029716
C107  C     C_R   0.997927 0.711634 0.807490 0.013872
C108  C     C_R   0.062098 0.215890 0.256692 0.006206
C109  C     C_R   0.555143 0.709643 0.250634 -0.014096
C110  C     C_R   0.561686 0.283743 0.757850 -0.039904
C111  C     C_R   0.549911 0.292983 0.255254 0.022905
C112  C     C_R   0.571205 0.728208 0.765152 0.010751
C113  C     C_R   0.053841 0.250258 0.804322 -0.074823
C114  C     C_R   0.053337 0.749753 0.195337 -0.073536
C115  C     C_R   0.053414 0.749582 0.804416 -0.067886
C116  C     C_R   0.054388 0.249692 0.196449 -0.070077
C117  C     C_R   0.554666 0.749631 0.303512 -0.073442
C118  C     C_R   0.554589 0.250764 0.696492 -0.070901
C119  C     C_R   0.554445 0.250503 0.303655 -0.069666
C120  C     C_R   0.554414 0.749817 0.696212 -0.076866
C121  C     C_R   0.499257 0.664688 0.146442 0.397051
C122  C     C_R   0.511897 0.322265 0.870145 0.418186
C123  C     C_R   0.497548 0.334931 0.147400 0.422517
C124  C     C_R   0.536468 0.705122 0.890386 0.420156
C125  C     C_R   0.854590 0.281514 0.791196 0.435752
C126  C     C_R   0.860127 0.704210 0.215030 0.422170
C127  C     C_R   0.885610 0.672535 0.759079 0.423829
C128  C     C_R   0.014875 0.177750 0.370234 0.469376
C129  C     C_R   0.556033 0.627396 0.148289 0.431578
C130  C     C_R   0.575936 0.352201 0.877957 0.377511
C131  C     C_R   0.543296 0.377645 0.157882 0.514713
C132  C     C_R   0.606837 0.683966 0.901916 0.438893
C133  C     C_R   0.836121 0.286146 0.865310 0.504972
C134  C     C_R   0.844092 0.690025 0.142809 0.501254
C135  C     C_R   0.886590 0.636142 0.816911 0.402161
C136  C     C_R   0.076801 0.144901 0.373342 0.470320
C137  C     C_R   0.890367 0.281929 0.918424 -0.359824
C138  C     C_R   0.897581 0.694768 0.088757 -0.362543
C139  C     C_R   0.942549 0.637866 0.868800 -0.320465
C140  C     C_R   0.131009 0.148840 0.319834 -0.317070
C141  C     C_R   0.611532 0.631876 0.200283 -0.245776
C142  C     C_R   0.631214 0.348077 0.825678 -0.142626
C143  C     C_R   0.593321 0.377636 0.215530 -0.334597
C144  C     C_R   0.658329 0.685284 0.845668 -0.290534
C145  C     C_R   0.961965 0.272378 0.898136 -0.210613
C146  C     C_R   0.966381 0.713376 0.106324 -0.208707
C147  C     C_R   0.997029 0.674767 0.864299 -0.214475
C148  C     C_R   0.123830 0.183431 0.262607 -0.203201
C149  C     C_R   0.610857 0.671842 0.250775 -0.142426
C150  C     C_R   0.623467 0.315638 0.765792 -0.105902
C151  C     C_R   0.597695 0.335635 0.262397 -0.182976
C152  C     C_R   0.640917 0.706774 0.778662 -0.228584
H21   H     H_    0.189299 0.223764 0.750545 0.159436
H22   H     H_    0.182662 0.791369 0.242460 0.149469
H23   H     H_    0.152066 0.828010 0.787025 0.150714
H24   H     H_    0.023704 0.315737 0.083863 0.128946
H25   H     H_    0.539341 0.829471 0.400781 0.129671
H26   H     H_    0.525728 0.186164 0.581681 0.131647
H27   H     H_    0.549131 0.165036 0.391639 0.138536
H28   H     H_    0.508340 0.794621 0.568641 0.141488
C153  C     C_R   0.235958 0.054212 0.135118 -0.112796
C154  C     C_R   0.235110 0.946453 0.135262 -0.125191
C155  C     C_R   0.794800 0.553155 0.371855 -0.146445
C156  C     C_R   0.795342 0.445552 0.372678 -0.141579
C157  C     C_R   0.226841 0.027382 0.200509 -0.082450
C158  C     C_R   0.226322 0.973666 0.200575 -0.092025
C159  C     C_R   0.816877 0.525922 0.309816 -0.144946
C160  C     C_R   0.817329 0.472218 0.310301 -0.127694
C161  C     C_R   0.242975 0.972916 0.067952 0.053722
C162  C     C_R   0.243220 0.027347 0.067840 0.048913
C163  C     C_R   0.773179 0.472517 0.436657 0.068234
C164  C     C_R   0.773158 0.526891 0.436242 0.061244
C165  C     C_R   0.250022 0.946209 0.000887 -0.080699
C166  C     C_R   0.248850 0.053624 0.000484 -0.082064
C167  C     C_R   0.749469 0.446408 0.500172 -0.093910
C168  C     C_R   0.750195 0.553804 0.499494 -0.098883
C169  C     C_R   0.253654 0.972509 0.933502 -0.016838
C170  C     C_R   0.250100 0.026718 0.933178 0.030259
C171  C     C_R   0.724814 0.473520 0.562892 -0.020711
C172  C     C_R   0.726090 0.527775 0.562774 0.033407
C173  C     C_R   0.259431 0.945642 0.866207 -0.248394
C174  C     C_R   0.245408 0.052774 0.865467 -0.315826
C175  C     C_R   0.699494 0.447621 0.626115 -0.249306
C176  C     C_R   0.703950 0.555049 0.626343 -0.307102
C177  C     C_R   0.256774 0.971578 0.799473 0.468426
C178  C     C_R   0.245752 0.025432 0.798893 0.392103
C179  C     C_R   0.675144 0.474787 0.687672 0.489033
C180  C     C_R   0.678148 0.529112 0.688460 0.410952
H29   H     H_    0.219868 0.048313 0.251334 0.157557
H30   H     H_    0.218769 0.953013 0.251415 0.176965
H31   H     H_    0.833348 0.546596 0.261109 0.147681
H32   H     H_    0.834386 0.451144 0.262024 0.177590
H33   H     H_    0.288369 0.458565 0.114449 0.240093
H34   H     H_    0.201381 0.541243 0.891190 0.231996
H35   H     H_    0.274200 0.546269 0.119525 0.212241
H36   H     H_    0.185930 0.453304 0.897936 0.203075
H37   H     H_    0.779052 0.954005 0.618574 0.210369
H38   H     H_    0.681472 0.046543 0.400904 0.203915
H39   H     H_    0.793751 0.041628 0.612383 0.233091
H40   H     H_    0.696416 0.958427 0.393658 0.234099
O53   O     O_3   0.442455 0.659221 0.097266 -0.763932
H41   H     H_    0.450990 0.629502 0.064285 0.418653
O54   O     O_3   0.454293 0.329515 0.917969 -0.749431
H42   H     H_    0.460469 0.362241 0.945399 0.421139
O55   O     O_3   0.455724 0.335058 0.085132 -0.690641
H43   H     H_    0.470721 0.303940 0.057112 0.336319
O56   O     O_3   0.485626 0.703163 0.946011 -0.754099
H44   H     H_    0.511134 0.700493 0.993503 0.389101
O57   O     O_3   0.802116 0.296253 0.741728 -0.757681
H45   H     H_    0.825444 0.321493 0.708380 0.301243
O58   O     O_3   0.808220 0.692420 0.266656 -0.752891
H46   H     H_    0.832972 0.670374 0.303314 0.295572
O59   O     O_3   0.829793 0.671522 0.708061 -0.806567
H47   H     H_    0.795353 0.643020 0.718207 0.360951
O60   O     O_3   0.961166 0.174317 0.423326 -0.772669
H48   H     H_    0.974445 0.148621 0.461076 0.388871
O61   O     O_3   0.764847 0.297187 0.884020 -0.753953
H49   H     H_    0.760804 0.299715 0.938033 0.329328
O62   O     O_3   0.776169 0.669649 0.127377 -0.731683
H50   H     H_    0.773473 0.661296 0.074458 0.323630
O63   O     O_3   0.832128 0.599352 0.821712 -0.788592
H51   H     H_    0.840699 0.577367 0.865257 0.340238
O64   O     O_3   0.083178 0.109274 0.429265 -0.756630
H52   H     H_    0.129428 0.089700 0.423417 0.337545
O65   O     O_3   0.555823 0.586722 0.099029 -0.719959
H53   H     H_    0.599046 0.564435 0.107764 0.340005
O66   O     O_3   0.583175 0.385094 0.937248 -0.730530
H54   H     H_    0.630946 0.402970 0.934450 0.345191
O67   O     O_3   0.539519 0.418166 0.108950 -0.671225
H55   H     H_    0.575277 0.445053 0.123459 0.328402
O68   O     O_3   0.623273 0.661193 0.968270 -0.743778
H56   H     H_    0.674182 0.648104 0.967123 0.339270
H57   H     H_    0.001588 0.272815 0.941810 0.176213
H58   H     H_    0.006041 0.714347 0.062520 0.165538
H59   H     H_    0.038383 0.674118 0.906545 0.145097
H60   H     H_    0.167408 0.184057 0.222606 0.148976
H61   H     H_    0.655058 0.672705 0.289996 0.185381
H62   H     H_    0.666756 0.315850 0.725650 0.193726
H63   H     H_    0.638950 0.337356 0.304639 0.164303
H64   H     H_    0.683071 0.705831 0.737261 0.184247
O69   O     O_3   0.233861 0.050311 0.733345 -0.747358
H65   H     H_    0.217131 0.086081 0.743668 0.370374
O70   O     O_3   0.263643 0.942632 0.736266 -0.768833
H66   H     H_    0.263169 0.965781 0.693217 0.375845
O71   O     O_3   0.655818 0.555937 0.750043 -0.748997
H67   H     H_    0.661416 0.593547 0.741430 0.345157
O72   O     O_3   0.648690 0.446624 0.745815 -0.788317
H68   H     H_    0.632610 0.470225 0.785407 0.388675
H69   H     H_    0.235969 0.096028 0.137764 0.117366
H70   H     H_    0.234714 0.904653 0.138018 0.123591
H71   H     H_    0.794345 0.594852 0.368557 0.124410
H72   H     H_    0.795378 0.403770 0.369773 0.129557
O73   O     O_3   0.383058 0.448186 0.013499 -0.732163
H73   H     H_    0.430255 0.455491 0.988850 0.411178
O74   O     O_3   0.341110 0.548621 0.899747 -0.745045
H74   H     H_    0.364770 0.583060 0.903042 0.388214
O75   O     O_3   0.385817 0.548331 0.016585 -0.762769
H75   H     H_    0.380617 0.533519 0.066193 0.352409
O76   O     O_3   0.338613 0.449541 0.897335 -0.706814
H76   H     H_    0.300997 0.463967 0.864270 0.350759
O77   O     O_3   0.885289 0.950286 0.511679 -0.749031
H77   H     H_    0.883492 0.966714 0.560630 0.347569
O78   O     O_3   0.833164 0.048968 0.392841 -0.735325
H78   H     H_    0.794705 0.033463 0.361755 0.344172
O79   O     O_3   0.883820 0.051260 0.506440 -0.780406
H79   H     H_    0.929588 0.043485 0.479364 0.389306
O80   O     O_3   0.836179 0.948779 0.397368 -0.753829
H80   H     H_    0.887156 0.956143 0.382113 0.377646
H81   H     H_    0.220477 0.208052 0.624801 0.176219
H82   H     H_    0.208900 0.823840 0.363272 0.157945
H83   H     H_    0.149605 0.893749 0.693365 0.205172
H84   H     H_    0.915701 0.368666 0.071075 0.133938
H85   H     H_    0.445265 0.894911 0.399890 0.128346
H86   H     H_    0.417760 0.134507 0.565035 0.131965
H87   H     H_    0.463576 0.094559 0.382966 0.128816
H88   H     H_    0.389171 0.830619 0.544806 0.135566
O81   O     O_3   0.336061 0.901946 0.301947 -0.807077
H89   H     H_    0.343024 0.926320 0.343331 0.322589
O82   O     O_3   0.304341 0.129643 0.657663 -0.778284
H90   H     H_    0.306780 0.110961 0.610260 0.342180
O83   O     O_3   0.355081 0.086399 0.284435 -0.799870
H91   H     H_    0.365215 0.060372 0.322888 0.325685
O84   O     O_3   0.277550 0.834638 0.640624 -0.753420
H92   H     H_    0.275139 0.848270 0.590013 0.324748
O85   O     O_3   0.126571 0.205867 0.512113 -0.751962
H93   H     H_    0.179654 0.198995 0.507452 0.332654
O86   O     O_3   0.114650 0.826706 0.476282 -0.735024
H94   H     H_    0.165810 0.839050 0.478972 0.328291
O87   O     O_3   0.050137 0.901958 0.586019 -0.702770
H95   H     H_    0.091685 0.926054 0.592637 0.336998
O88   O     O_3   0.803946 0.373358 0.166726 -0.800988
H96   H     H_    0.805905 0.393125 0.120345 0.327160
H97   H     H_    0.348548 0.827806 0.209504 0.122637
H98   H     H_    0.331194 0.187212 0.769515 0.114212
H99   H     H_    0.357854 0.165763 0.200963 0.133691
H100  H     H_    0.318773 0.793857 0.761169 0.136544
H101  H     H_    0.998404 0.224125 0.560440 0.181840
H102  H     H_    0.992108 0.789883 0.433923 0.152481
H103  H     H_    0.958757 0.827689 0.598301 0.147690
H104  H     H_    0.832377 0.313749 0.274864 0.120699

loop_
_geom_bond_atom_site_label_1
_geom_bond_atom_site_label_2
_geom_bond_distance
_ccdc_geom_bond_type
C153  C157  1.393766 A    
C110  C118  1.413448 A    
C174  C178  1.405832 A    
O54   H42   0.989361 S    
C87   C119  1.410327 A    
C164  C168  1.411507 A    
O71   H67   0.991301 S    
C167  C171  1.415659 A    
C43   C83   1.416041 A    
O26   C7    1.277008 A    
C28   H36   1.111024 S    
C128  O60   1.384749 S    
C161  C165  1.411224 A    
C163  C167  1.413184 A    
O30   C11   1.275572 A    
C107  C115  1.415487 A    
C56   H88   1.083250 S    
C133  C137  1.394091 A    
H13   C137  1.083197 S    
C49   H81   1.081426 S    
C54   C58   1.398249 A    
Zn12  O26   1.934503 S    
C126  C134  1.400660 A    
H16   C140  1.082638 S    
C109  C149  1.412230 A    
C108  C116  1.414802 A    
C59   C67   1.395913 A    
C52   C64   1.400260 A    
C53   C57   1.399690 A    
C26   H34   1.112346 S    
C29   H5    1.113823 S    
C112  C120  1.413670 A    
C106  C146  1.415498 A    
O11   C7    1.281427 A    
C136  C140  1.397495 A    
C133  O61   1.378882 S    
O34   C15   1.274601 A    
C134  O62   1.381214 S    
C77   C81   1.408412 A    
C66   H98   1.082658 S    
Zn1   O44   1.947907 S    
C25   H1    1.113673 S    
C132  C144  1.395459 A    
Zn2   O43   1.947908 S    
C79   C83   1.408226 A    
C124  C132  1.415770 A    
O59   H47   0.989008 S    
C35   O77   1.416513 S    
Zn5   O48   1.947907 S    
C65   C73   1.419531 A    
Zn6   O47   1.947908 S    
C128  C136  1.417493 A    
Zn7   O46   1.950337 S    
H15   C139  1.083242 S    
C155  C164  1.417162 A    
O16   C12   1.277413 A    
O60   H48   0.989481 S    
C58   C66   1.398466 A    
Zn16  O4    1.949726 S    
Zn12  O4    1.953204 S    
Zn1   O13   1.935707 S    
C26   C28   1.542692 S    
C131  O67   1.381259 S    
Zn4   O16   1.935662 S    
C99   C123  1.435741 A    
C27   H35   1.111299 S    
C28   H4    1.113512 S    
C97   C121  1.436474 A    
C141  C149  1.383955 A    
C42   C50   1.391629 A    
C22   C38   1.495247 S    
Zn6   O4    1.950728 S    
C58   O82   1.376303 S    
O38   C18   1.270091 A    
C46   C86   1.415540 A    
C150  H62   1.080166 S    
O86   H94   0.991909 S    
C30   C40   1.555811 S    
C30   H6    1.113550 S    
Zn10  O22   1.934503 S    
C121  C129  1.417803 A    
C88   C120  1.410355 A    
O81   H89   0.991862 S    
O25   C8    1.276047 A    
Zn13  O29   1.932259 S    
C100  C124  1.435969 A    
Zn10  O2    1.953204 S    
C71   C79   1.419784 A    
O29   C12   1.276484 A    
C72   C80   1.419591 A    
C82   C114  1.411003 A    
O72   H68   0.989890 S    
C90   C98   1.425156 A    
C41   C49   1.390180 A    
C26   H2    1.113462 S    
C86   C118  1.406726 A    
O37   C17   1.274842 A    
C94   C102  1.425692 A    
O48   C23   1.277949 A    
C97   C109  1.416722 A    
C45   C85   1.416220 A    
C46   H26   1.082342 S    
C57   O81   1.378552 S    
C60   O84   1.379397 S    
C48   C88   1.417100 A    
O77   H77   0.990006 S    
C149  H61   1.082080 S    
O78   H78   0.990156 S    
C78   C94   1.418454 A    
Zn16  O35   1.934364 S    
C4    C90   1.452797 S    
C153  C162  1.416935 A    
C75   C87   1.408558 A    
C105  C113  1.416011 A    
C146  H58   1.081260 S    
Zn15  O33   1.932259 S    
Zn7   O10   1.935618 S    
O33   C16   1.275522 A    
H17   C141  1.083393 S    
Zn8   O20   1.935662 S    
C157  C158  1.389370 A    
C5    C95   1.451548 S    
C135  C139  1.397757 A    
O40   C20   1.273050 A    
C6    C96   1.451619 S    
C100  C112  1.415846 A    
C35   C36   1.593009 S    
C161  C162  1.407839 A    
C15   C119  1.453189 S    
C44   H24   1.082358 S    
C172  C176  1.416476 A    
Zn5   O17   1.935707 S    
H9    C173  1.082875 S    
C154  H70   1.082492 S    
C110  C150  1.409097 A    
C157  H29   1.081390 S    
C139  C147  1.384768 A    
C47   C55   1.391524 A    
C25   C27   1.535370 S    
C162  C166  1.411667 A    
C25   C37   1.557165 S    
C111  C119  1.414779 A    
C27   H3    1.113835 S    
C32   H8    1.113417 S    
Zn8   O3    1.945878 S    
C47   H27   1.081986 S    
C28   C37   1.556450 S    
C69   C77   1.421571 A    
H10   C174  1.082610 S    
C67   C75   1.419793 A    
C67   H99   1.082213 S    
C36   C40   1.575737 S    
O5    C1    1.277556 A    
C63   C71   1.394465 A    
O32   C9    1.277647 A    
C29   C39   1.558790 S    
O55   H43   0.991209 S    
C16   C120  1.452168 S    
Zn15  O51   1.948641 S    
O53   H41   0.987782 S    
Zn11  O28   1.933718 S    
C32   C39   1.555584 S    
Zn12  O40   1.948599 S    
C123  O55   1.372455 S    
C101  C125  1.436159 A    
C33   C37   1.574933 S    
C21   C37   1.492330 S    
C78   C82   1.408250 A    
C35   C39   1.575870 S    
C75   C91   1.417717 A    
C23   C39   1.494146 S    
C130  O66   1.382609 S    
C136  O64   1.382881 S    
C14   C118  1.453428 S    
O8    C4    1.274570 A    
C53   H85   1.083045 S    
C151  H63   1.081686 S    
C129  O65   1.382934 S    
C66   C74   1.418432 A    
C64   O88   1.379503 S    
C131  C143  1.396932 A    
C9    C113  1.453194 S    
O50   C18   1.271824 A    
C171  C172  1.403523 A    
C148  H60   1.082458 S    
C123  C131  1.400720 A    
C32   H40   1.112340 S    
Zn1   O1    1.950730 S    
C138  C146  1.387545 A    
Zn13  O1    1.952904 S    
Zn2   O14   1.933710 S    
C125  C133  1.400890 A    
C24   C40   1.493668 S    
C26   C38   1.554973 S    
C51   C63   1.398870 A    
C152  H64   1.081136 S    
O9    C5    1.275285 A    
O39   C19   1.270510 A    
O36   C13   1.278423 A    
C103  C107  1.417651 A    
C74   C90   1.418374 A    
C43   C51   1.392508 A    
C126  O58   1.374505 S    
C101  C105  1.414966 A    
O13   C9    1.278762 A    
Zn1   O8    1.933667 S    
H20   C144  1.083128 S    
H19   C143  1.083315 S    
Zn2   O7    1.935664 S    
Zn3   O6    1.935618 S    
C156  H72   1.081841 S    
O31   C10   1.276246 A    
C34   O74   1.413206 S    
O6    C2    1.278829 A    
C69   H101  1.079926 S    
C163  C164  1.406378 A    
C45   H25   1.082291 S    
C154  C158  1.393362 A    
C109  C117  1.413733 A    
C179  C180  1.406267 A    
C145  H57   1.079382 S    
H11   C175  1.082165 S    
C17   C166  1.440999 S    
O74   H74   0.992998 S    
O79   H79   0.993428 S    
C95   C103  1.427589 A    
O88   H96   0.991826 S    
Zn14  O30   1.933971 S    
Zn15  O3    1.952904 S    
Zn11  O3    1.950027 S    
O41   C21   1.277204 A    
C104  C108  1.417261 A    
Zn16  O34   1.933971 S    
C91   C99   1.426311 A    
O84   H92   0.991859 S    
C106  C114  1.416136 A    
C89   C97   1.429835 A    
C48   H28   1.082031 S    
O57   H45   0.991530 S    
C84   C116  1.409775 A    
C169  C173  1.414984 A    
C130  C142  1.395743 A    
C92   C100  1.429953 A    
C103  C127  1.437421 A    
C93   C101  1.426209 A    
C68   H100  1.081990 S    
C96   C104  1.427464 A    
C35   O80   1.409982 S    
C154  C161  1.416855 A    
C76   C92   1.418273 A    
C132  O68   1.382812 S    
C33   O73   1.410473 S    
O66   H54   0.991904 S    
C63   O87   1.379589 S    
Zn8   O9    1.935720 S    
C107  C147  1.411713 A    
C105  C145  1.417290 A    
C127  O59   1.384618 S    
O62   H50   0.991845 S    
O7    C3    1.276283 A    
C72   H104  1.082558 S    
C55   H87   1.083091 S    
O76   H76   0.990066 S    
O19   C15   1.276607 A    
C108  C148  1.411719 A    
O63   H51   0.991842 S    
Zn7   O4    1.945879 S    
Zn9   O24   1.933718 S    
Zn6   O18   1.933710 S    
C111  C151  1.415338 A    
Zn10  O23   1.932010 S    
C55   C59   1.399305 A    
O58   H46   0.990579 S    
C112  C152  1.413577 A    
C165  C169  1.410192 A    
C46   C54   1.388386 A    
C73   C85   1.408464 A    
C155  C159  1.392793 A    
C176  C180  1.402532 A    
C36   O78   1.416461 S    
C147  H59   1.082284 S    
Zn15  O36   1.934756 S    
O15   C11   1.276751 A    
O42   C22   1.278920 A    
Zn4   O1    1.945878 S    
C30   C32   1.543218 S    
C98   C122  1.435248 A    
C62   O86   1.379096 S    
Zn9   O37   1.950193 S    
C122  O54   1.382188 S    
O12   C8    1.279488 A    
O56   H44   0.988638 S    
Zn11  O39   1.950193 S    
C70   C78   1.420412 A    
C33   C34   1.590051 S    
C65   H97   1.082437 S    
C62   C70   1.396030 A    
C121  O53   1.382712 S    
C29   H37   1.111379 S    
Zn5   O3    1.950730 S    
C31   H39   1.112665 S    
C44   C52   1.392684 A    
C31   H7    1.113689 S    
C45   C53   1.391701 A    
C173  C177  1.394478 A    
C137  C145  1.384581 A    
C48   C56   1.392251 A    
O70   H66   0.990040 S    
C1    C91   1.453188 S    
C171  C175  1.415585 A    
C158  H30   1.082015 S    
C2    C92   1.453806 S    
O65   H53   0.991927 S    
C12   C116  1.454375 S    
C41   H21   1.080431 S    
C42   C82   1.417582 A    
C76   C88   1.407889 A    
C83   C115  1.410147 A    
O28   C5    1.276400 A    
C34   O75   1.416707 S    
C81   C113  1.412795 A    
O68   H56   0.991896 S    
Zn3   O42   1.950337 S    
C80   C84   1.408116 A    
O61   H49   0.991976 S    
O21   C4    1.281623 A    
C99   C111  1.416083 A    
C98   C110  1.415771 A    
C85   C117  1.409150 A    
C60   C68   1.395799 A    
C61   C69   1.394420 A    
C125  O57   1.374304 S    
C156  C163  1.418813 A    
O64   H52   0.991906 S    
C64   C72   1.395810 A    
Zn2   O2    1.950728 S    
C42   H22   1.081836 S    
O69   H65   0.991715 S    
Zn14  O2    1.949726 S    
C155  H71   1.080325 S    
O82   H90   0.991920 S    
C56   C60   1.399582 A    
H12   C176  1.081389 S    
C25   H33   1.112712 S    
Zn13  O49   1.948641 S    
O73   H73   0.993434 S    
C50   C62   1.399213 A    
C175  C179  1.397450 A    
C180  O71   1.382107 S    
C41   C81   1.418741 A    
H18   C142  1.082482 S    
Zn12  O27   1.932010 S    
C134  C138  1.396933 A    
C54   H86   1.083201 S    
C144  C152  1.383549 A    
Zn3   O2    1.945879 S    
C143  C151  1.387458 A    
C51   H83   1.080096 S    
C129  C141  1.396959 A    
C31   C40   1.558390 S    
C70   H102  1.081834 S    
C33   O76   1.416628 S    
C79   C95   1.416182 A    
O80   H80   0.993411 S    
C80   C96   1.416782 A    
O46   C24   1.278868 A    
O47   C24   1.276763 A    
Zn16  O52   1.950235 S    
C153  H69   1.082512 S    
C169  C170  1.403500 A    
C18   C165  1.438192 S    
Zn8   O45   1.950336 S    
C156  C160  1.393713 A    
C57   C65   1.395969 A    
O27   C6    1.278605 A    
C49   C61   1.396382 A    
C8    C94   1.451743 S    
C29   C31   1.535274 S    
C52   H84   1.083014 S    
C27   C38   1.560362 S    
O24   C1    1.275349 A    
C59   O83   1.378561 S    
H14   C138  1.083400 S    
C170  C174  1.413392 A    
C61   O85   1.378557 S    
O43   C22   1.277663 A    
C47   C87   1.416721 A    
Zn4   O41   1.950336 S    
C179  O72   1.378278 S    
Zn5   O12   1.933667 S    
Zn6   O11   1.935664 S    
C36   O79   1.409879 S    
C168  C172  1.410908 A    
Zn9   O21   1.934114 S    
C177  C178  1.407167 A    
Zn14  O50   1.950235 S    
C102  C126  1.437409 A    
O35   C14   1.277149 A    
O87   H95   0.991881 S    
C34   C38   1.579628 S    
Zn9   O1    1.950027 S    
C178  O69   1.378725 S    
C11   C115  1.455661 S    
O52   C20   1.270910 A    
C142  C150  1.384924 A    
C159  C160  1.389089 A    
C7    C93   1.454445 S    
C50   H82   1.083302 S    
C13   C117  1.453655 S    
O83   H91   0.991879 S    
O44   C21   1.277743 A    
O22   C3    1.282140 A    
C159  H31   1.082740 S    
Zn7   O19   1.935764 S    
C160  H32   1.081648 S    
C10   C114  1.453772 S    
C127  C135  1.417373 A    
C166  C170  1.411990 A    
Zn13  O32   1.934756 S    
O49   C17   1.268604 A    
Zn14  O31   1.934364 S    
C74   C86   1.408902 A    
O18   C14   1.277022 A    
O51   C19   1.271252 A    
C122  C130  1.413922 A    
C77   C93   1.419751 A    
C3    C89   1.455036 S    
C124  O56   1.379595 S    
C43   H23   1.082443 S    
O85   H93   0.991916 S    
Zn3   O15   1.935764 S    
Zn4   O5    1.935720 S    
O17   C13   1.277411 A    
O20   C16   1.277316 A    
O10   C6    1.275509 A    
O23   C2    1.276656 A    
Zn11  O25   1.934114 S    
O67   H55   0.991928 S    
Zn10  O38   1.948599 S    
C140  C148  1.384404 A    
C102  C106  1.416174 A    
C44   C84   1.416143 A    
O14   C10   1.278732 A    
C30   H38   1.111178 S    
C68   C76   1.420636 A    
C177  O70   1.380594 S    
C135  O63   1.382892 S    
C71   H103  1.082345 S    
O75   H75   0.989899 S    
C73   C89   1.417631 A    
C19   C168  1.438040 S    
C104  C128  1.437073 A    
O45   C23   1.277938 A    
C20   C167  1.441188 S    
