data_mof_unit_3953.cif
_audit_creation_date              2012-12-11T17:04:50-0500
_audit_creation_method            fapswitch 2.2
_symmetry_space_group_name_H-M    P1
_symmetry_Int_Tables_number       1
_space_group_crystal_system       triclinic
_cell_length_a                    17.611578
_cell_length_b                    24.258915
_cell_length_c                    15.327651
_cell_angle_alpha                 90.169777
_cell_angle_beta                  126.233966
_cell_angle_gamma                 90.504183
_cell_volume                      5281.6523251

loop_
_atom_site_label
_atom_site_type_symbol
_atom_type_description
_atom_site_fract_x
_atom_site_fract_y
_atom_site_fract_z
_atom_type_partial_charge
C1    C     C_R   0.821267 0.637069 0.902509 0.504511
C2    C     C_R   0.966216 0.503017 0.652540 -0.320279
C3    C     C_R   0.754601 0.044054 0.308441 0.649641
C4    C     C_R   0.847898 0.349377 0.908883 0.754593
C5    C     C_R   0.142605 0.346957 0.085399 0.720023
C6    C     C_R   0.347896 0.849378 0.908884 0.754594
C7    C     C_R   0.642605 0.846957 0.085400 0.720025
C8    C     C_R   0.908020 0.638756 0.082972 0.590567
C9    C     C_R   0.099247 0.628459 0.913474 0.551367
C10   C     C_R   0.408019 0.138756 0.082972 0.590568
C11   C     C_R   0.599246 0.128459 0.913473 0.551459
C12   C     C_R   0.822693 0.656845 0.987438 -0.190531
C13   C     C_R   0.560771 0.008000 0.362118 -0.235858
C14   C     C_R   0.191650 0.638091 0.005690 -0.202782
C15   C     C_R   0.322693 0.156844 0.987437 -0.190527
C16   C     C_R   0.691650 0.138091 0.005690 -0.202749
C17   C     C_3   0.841343 0.684281 0.789902 0.110851
C18   C     C_3   0.229355 0.690968 0.218125 0.060557
C19   C     C_3   0.341342 0.184280 0.789901 0.110856
C20   C     C_3   0.729352 0.190969 0.218122 0.060552
C21   C     C_3   0.495661 0.387137 0.661735 -0.140825
C22   C     C_3   0.515336 0.356894 0.447818 0.004667
C23   C     C_3   0.995661 0.887141 0.661744 -0.140827
C24   C     C_R   0.466208 0.003017 0.652535 -0.320281
C25   C     C_3   0.015336 0.856892 0.447828 0.004668
C26   C     C_3   0.254925 0.585049 0.854984 0.008289
C27   C     C_3   0.728413 0.592973 0.106524 -0.068434
C28   C     C_3   0.754965 0.085071 0.854949 0.008130
C29   C     C_3   0.228409 0.092971 0.106515 -0.068443
C30   C     C_3   0.543223 0.594211 0.220448 -0.116231
C31   C     C_3   0.596325 0.728686 0.603869 0.125474
C32   C     C_3   0.043211 0.094204 0.220438 -0.116246
C33   C     C_3   0.096329 0.228689 0.603870 0.125457
C34   C     C_3   0.079695 0.374102 0.608576 0.101107
C35   C     C_R   0.691658 0.497309 0.639853 -0.245850
C36   C     C_3   0.259901 0.471132 0.650200 -0.205138
C37   C     C_3   0.579677 0.874102 0.608559 0.101139
C38   C     C_3   0.759894 0.971135 0.650190 -0.205138
C39   C     C_3   0.937754 0.697091 0.358321 0.167796
C40   C     C_3   0.040867 0.691130 0.625262 0.205800
C41   C     C_3   0.437745 0.197091 0.358314 0.167810
C42   C     C_3   0.540852 0.191132 0.625253 0.205810
C43   C     C_3   0.135809 0.382048 0.373945 0.254928
C44   C     C_3   0.859536 0.402098 0.556635 0.026994
C45   C     C_3   0.635809 0.882049 0.373947 0.254941
C46   C     C_R   0.304209 0.496812 0.365443 -0.247733
C47   C     C_3   0.359530 0.902098 0.556632 0.026995
C48   C     C_3   0.710565 0.589985 0.543451 0.063366
C49   C     C_3   0.292338 0.595889 0.458116 0.084617
C50   C     C_3   0.210565 0.089983 0.543450 0.063385
C51   C     C_3   0.792337 0.095891 0.458114 0.084604
C52   C     C_3   0.978851 0.718985 0.172310 -0.157471
C53   C     C_3   0.051173 0.714763 0.846002 -0.275532
C54   C     C_3   0.478850 0.218984 0.172309 -0.157475
C55   C     C_3   0.551171 0.214764 0.846005 -0.275553
C56   C     C_3   0.497605 0.531153 0.730342 -0.205161
C57   C     C_R   0.191657 0.997309 0.639853 -0.245849
C58   C     C_3   0.497437 0.466643 0.281895 -0.200965
C59   C     C_3   0.997604 0.031159 0.730341 -0.205179
C60   C     C_3   0.997436 0.966639 0.281898 -0.200978
C61   C     C_R   0.804208 0.996813 0.365444 -0.247737
C62   C     C_3   0.529007 0.454875 0.582573 0.373062
C63   C     C_3   0.469918 0.444488 0.460097 0.389932
C64   C     C_3   0.029006 0.954877 0.582577 0.373063
C65   C     C_R   0.191445 0.625355 0.093538 0.510351
C66   C     C_3   0.969918 0.944488 0.460102 0.389933
C67   C     C_3   0.466613 0.503223 0.568142 0.295086
C68   C     C_3   0.529647 0.485683 0.448269 0.295775
C69   C     C_3   0.966612 0.003226 0.568143 0.295086
C70   C     C_3   0.029646 0.985682 0.448271 0.295774
C71   C     C_3   0.405459 0.493054 0.445211 -0.342868
C72   C     C_3   0.590471 0.495770 0.570504 -0.363217
C73   C     C_3   0.905458 0.993054 0.445213 -0.342866
C74   C     C_3   0.090470 0.995770 0.570506 -0.363221
C75   C     C_3   0.467498 0.533649 0.434616 0.505924
C76   C     C_R   0.321266 0.137069 0.902509 0.504505
C77   C     C_3   0.527770 0.543924 0.556925 0.501289
C78   C     C_3   0.967497 0.033648 0.434615 0.505922
C79   C     C_3   0.027769 0.043925 0.556924 0.501297
C80   C     C_R   0.885538 0.236847 0.101279 -0.228262
C81   C     C_R   0.109904 0.243158 0.882742 -0.223347
C82   C     C_R   0.385533 0.736848 0.101281 -0.228284
C83   C     C_R   0.609904 0.743157 0.882743 -0.223340
C84   C     C_R   0.852355 0.258699 0.000308 -0.109742
C85   C     C_R   0.126670 0.258314 0.981100 -0.072365
C86   C     C_R   0.352350 0.758700 0.000310 -0.109762
C87   C     C_R   0.691445 0.125355 0.093537 0.510328
C88   C     C_R   0.626670 0.758314 0.981101 -0.072359
C89   C     C_R   0.801906 0.222666 0.909530 0.672070
C90   C     C_R   0.180412 0.221913 0.068260 0.737402
C91   C     C_R   0.301907 0.722666 0.909533 0.672100
C92   C     C_R   0.680413 0.721914 0.068262 0.737399
C93   C     C_R   0.934514 0.350272 0.087280 0.695007
C94   C     C_R   0.043840 0.347290 0.907326 0.826318
C95   C     C_R   0.434512 0.850273 0.087281 0.695015
C96   C     C_R   0.543840 0.847290 0.907326 0.826316
C97   C     C_R   0.265839 0.672615 0.917202 0.369378
C98   C     C_R   0.873500 0.317425 0.996901 -0.281944
C99   C     C_R   0.733240 0.681062 0.062161 0.316612
C100  C     C_R   0.765835 0.172617 0.917200 0.369356
C101  C     C_R   0.233238 0.181061 0.062159 0.316613
C102  C     C_R   0.270933 0.663199 0.011236 -0.113246
C103  C     C_R   0.742950 0.682932 0.976984 -0.101439
C104  C     C_R   0.770930 0.163203 0.011234 -0.113217
C105  C     C_R   0.242949 0.182931 0.976983 -0.101442
C106  C     C_R   0.344202 0.688754 0.107415 -0.156898
C107  C     C_R   0.668899 0.707344 0.880910 -0.179504
C108  C     C_R   0.844202 0.188755 0.107414 -0.156917
C109  C     C_R   0.104639 0.314476 0.993320 -0.303830
C110  C     C_R   0.168899 0.207344 0.880909 -0.179503
C111  C     C_3   0.439364 0.663633 0.185790 0.964777
C112  C     C_3   0.657068 0.736002 0.786798 0.963577
C113  C     C_3   0.939361 0.163631 0.185787 0.964784
C114  C     C_3   0.157070 0.236003 0.786799 0.963576
C115  C     C_3   0.982688 0.214518 0.176567 1.195976
C116  C     C_3   0.092791 0.275095 0.789336 1.123160
C117  C     C_3   0.482685 0.714523 0.176573 1.195995
C118  C     C_3   0.592788 0.775094 0.789335 1.123156
C119  C     C_R   0.967462 0.550014 0.510654 -0.149580
C120  C     C_R   0.373496 0.817426 0.996902 -0.281937
C121  C     C_R   0.993135 0.552492 0.441659 -0.262398
C122  C     C_R   0.467456 0.050014 0.510650 -0.149581
C123  C     C_R   0.493131 0.052493 0.441656 -0.262384
C124  C     C_R   0.997577 0.506709 0.584076 -0.068886
C125  C     C_R   0.059107 0.515656 0.453727 0.016004
C126  C     C_R   0.497569 0.006709 0.584071 -0.068904
C127  C     C_R   0.559102 0.015656 0.453725 0.015990
C128  C     C_R   0.062417 0.468328 0.593822 0.363125
C129  C     C_R   0.101346 0.477738 0.537387 0.459363
C130  C     C_R   0.562409 0.968328 0.593817 0.363127
C131  C     C_R   0.604639 0.814476 0.993321 -0.303831
C132  C     C_R   0.601340 0.977738 0.537384 0.459360
C133  C     C_3   0.000007 0.614285 0.447624 0.956847
C134  C     C_3   0.969793 0.611925 0.521799 0.959922
C135  C     C_3   0.500000 0.114285 0.447619 0.956848
C136  C     C_3   0.469784 0.111926 0.521792 0.959914
C137  C     C_R   0.047419 0.550058 0.297570 0.747058
C138  C     C_R   0.964867 0.547536 0.707012 0.748322
C139  C     C_R   0.547418 0.050058 0.297570 0.747056
C140  C     C_R   0.464864 0.047537 0.707010 0.748339
C141  C     C_R   0.741574 0.453506 0.701469 0.778377
C142  C     C_R   0.060774 0.508000 0.362119 -0.235857
C143  C     C_R   0.255669 0.453645 0.298752 0.677641
C144  C     C_R   0.241573 0.953506 0.701470 0.778378
C145  C     C_R   0.755668 0.953646 0.298752 0.677639
C146  C     C_R   0.049194 0.459550 0.305909 0.424798
C147  C     C_R   0.964999 0.455968 0.704484 0.609344
C148  C     C_R   0.549192 0.959550 0.305908 0.424797
C149  C     C_R   0.464993 0.955968 0.704481 0.609347
C150  C     C_R   0.743058 0.544135 0.694955 0.587862
C151  C     C_R   0.254601 0.544054 0.308441 0.649637
C152  C     C_R   0.243058 0.044136 0.694956 0.587853
F1    F     F_    0.433650 0.574006 0.357698 -0.594213
F2    F     F_    0.739262 0.761781 0.814137 -0.738181
F3    F     F_    0.958928 0.158056 0.287068 -0.620076
F4    F     F_    0.239265 0.261781 0.814141 -0.738188
F5    F     F_    0.025883 0.206341 0.126035 -0.679006
F6    F     F_    0.999811 0.271289 0.699238 -0.655028
F7    F     F_    0.525885 0.706349 0.126046 -0.678988
F8    F     F_    0.499808 0.771286 0.699238 -0.655026
F9    F     F_    0.039098 0.243032 0.273719 -0.626924
F10   F     F_    0.129615 0.328271 0.815317 -0.712975
F11   F     F_    0.539090 0.743037 0.273725 -0.626936
F12   F     F_    0.558263 0.595368 0.605073 -0.625426
F13   F     F_    0.629611 0.828270 0.815312 -0.712971
F14   F     F_    0.977489 0.334973 0.190155 -0.633988
F15   F     F_    0.966519 0.328204 0.812217 -0.550199
F16   F     F_    0.477490 0.834975 0.190155 -0.633990
F17   F     F_    0.466519 0.828204 0.812217 -0.550198
F18   F     F_    0.092385 0.632233 0.497225 -0.679982
F19   F     F_    0.879964 0.631513 0.477318 -0.691497
F20   F     F_    0.592378 0.132234 0.497222 -0.679985
F21   F     F_    0.379954 0.131511 0.477310 -0.691501
F22   F     F_    0.081336 0.601886 0.331307 -0.622711
F23   F     F_    0.933649 0.074003 0.357694 -0.594215
F24   F     F_    0.925212 0.596585 0.663357 -0.641088
F25   F     F_    0.581334 0.101886 0.331307 -0.622713
F26   F     F_    0.425208 0.096585 0.663355 -0.641097
F27   F     F_    0.728061 0.401251 0.663707 -0.615556
F28   F     F_    0.270094 0.400239 0.327161 -0.639070
F29   F     F_    0.228060 0.901251 0.663707 -0.615560
F30   F     F_    0.770093 0.900239 0.327162 -0.639068
F31   F     F_    0.801648 0.331597 0.805834 -0.524907
F32   F     F_    0.189491 0.327729 0.187131 -0.566045
F33   F     F_    0.301643 0.831598 0.805834 -0.524914
F34   F     F_    0.058262 0.095370 0.605068 -0.625423
F35   F     F_    0.689491 0.827729 0.187132 -0.566043
F36   F     F_    0.787967 0.234233 0.814816 -0.578267
F37   F     F_    0.186689 0.226950 0.160308 -0.560454
F38   F     F_    0.287974 0.734233 0.814823 -0.578255
F39   F     F_    0.686691 0.726951 0.160310 -0.560453
F40   F     F_    0.458928 0.658056 0.287071 -0.620079
H1    H     H_    0.885797 0.652956 0.787968 0.157958
H2    H     H_    0.666458 0.183098 0.216956 0.112601
H3    H     H_    0.039582 0.719263 0.909704 0.092060
H4    H     H_    0.991580 0.734903 0.772131 0.152635
H5    H     H_    0.116522 0.737527 0.872355 0.132162
H6    H     H_    0.509446 0.220735 0.126153 0.080515
H7    H     H_    0.532875 0.235918 0.254270 0.157497
H8    H     H_    0.416162 0.245827 0.133776 0.121786
H9    H     H_    0.539583 0.219263 0.909709 0.092055
H10   H     H_    0.491576 0.234903 0.772135 0.152633
H11   H     H_    0.616519 0.237528 0.872355 0.132176
H12   H     H_    0.510241 0.575792 0.727243 0.216616
H13   H     H_    0.714462 0.223740 0.159317 0.044366
H14   H     H_    0.564751 0.508153 0.771062 0.148287
H15   H     H_    0.471635 0.526694 0.780591 0.135394
H16   H     H_    0.441473 0.498269 0.244756 0.190712
H17   H     H_    0.466084 0.425110 0.271198 0.170356
H18   H     H_    0.528800 0.466533 0.236966 0.143183
H19   H     H_    0.010240 0.075798 0.727239 0.216617
H20   H     H_    0.064751 0.008159 0.771063 0.148293
H21   H     H_    0.971634 0.026701 0.780591 0.135388
H22   H     H_    0.941475 0.998267 0.244756 0.190716
H23   H     H_    0.966078 0.925107 0.271203 0.170360
H24   H     H_    0.786594 0.206633 0.300012 0.180115
H25   H     H_    0.028801 0.966523 0.236971 0.143183
H26   H     H_    0.432720 0.377207 0.578321 0.173101
H27   H     H_    0.474953 0.411915 0.705290 0.151355
H28   H     H_    0.523394 0.347531 0.705029 0.132878
H29   H     H_    0.538000 0.339372 0.526425 0.171853
H30   H     H_    0.576072 0.377004 0.455625 0.170394
H31   H     H_    0.491812 0.321959 0.390054 0.090548
H32   H     H_    0.932721 0.877209 0.578331 0.173099
H33   H     H_    0.885700 0.715373 0.854978 0.079247
H34   H     H_    0.974953 0.911920 0.705297 0.151357
H35   H     H_    0.023396 0.847536 0.705042 0.132879
H36   H     H_    0.038003 0.839373 0.526438 0.171855
H37   H     H_    0.076070 0.877002 0.455630 0.170396
H38   H     H_    0.991812 0.821956 0.390067 0.090548
H39   H     H_    0.331731 0.586567 0.892552 0.114413
H40   H     H_    0.220275 0.559975 0.779697 0.132444
H41   H     H_    0.241725 0.563837 0.909079 0.094894
H42   H     H_    0.723802 0.575734 0.036109 0.073252
H43   H     H_    0.656695 0.598327 0.085713 0.123458
H44   H     H_    0.803392 0.705955 0.711505 0.149595
H45   H     H_    0.765447 0.562476 0.172624 0.159561
H46   H     H_    0.831725 0.086624 0.892282 0.114451
H47   H     H_    0.720188 0.059972 0.779676 0.132476
H48   H     H_    0.741990 0.063864 0.909241 0.094976
H49   H     H_    0.223802 0.075733 0.036102 0.073253
H50   H     H_    0.156689 0.098324 0.085699 0.123453
H51   H     H_    0.265440 0.062474 0.172614 0.159562
H52   H     H_    0.550752 0.579028 0.293287 0.205639
H53   H     H_    0.599471 0.625201 0.244596 0.188075
H54   H     H_    0.553990 0.558903 0.182922 0.129540
H55   H     H_    0.166460 0.683098 0.216957 0.112598
H56   H     H_    0.657613 0.754206 0.624350 0.070304
H57   H     H_    0.532101 0.754047 0.563374 0.090158
H58   H     H_    0.584323 0.697115 0.544258 0.216936
H59   H     H_    0.050747 0.079029 0.293286 0.205644
H60   H     H_    0.099462 0.125191 0.244571 0.188077
H61   H     H_    0.053966 0.058890 0.182913 0.129542
H62   H     H_    0.157615 0.254210 0.624353 0.070293
H63   H     H_    0.032102 0.254049 0.563373 0.090171
H64   H     H_    0.084330 0.197118 0.544261 0.216935
H65   H     H_    0.149282 0.355232 0.644119 0.151872
H66   H     H_    0.214468 0.723740 0.159321 0.044368
H67   H     H_    0.041288 0.377178 0.519223 0.078559
H68   H     H_    0.036673 0.345788 0.619291 0.190945
H69   H     H_    0.261725 0.468472 0.723873 0.146220
H70   H     H_    0.268790 0.514747 0.634954 0.168872
H71   H     H_    0.320591 0.447673 0.666158 0.186787
H72   H     H_    0.649268 0.855236 0.644080 0.151858
H73   H     H_    0.541245 0.877180 0.519198 0.078545
H74   H     H_    0.536672 0.845782 0.619296 0.190954
H75   H     H_    0.761721 0.968485 0.723865 0.146204
H76   H     H_    0.768781 0.014748 0.634928 0.168871
H77   H     H_    0.286597 0.706631 0.300016 0.180116
H78   H     H_    0.820584 0.947674 0.666153 0.186785
H79   H     H_    0.009466 0.713895 0.393780 0.096080
H80   H     H_    0.911705 0.710778 0.405182 0.090326
H81   H     H_    0.890208 0.715958 0.277808 0.175128
H82   H     H_    0.972612 0.708119 0.601153 0.103207
H83   H     H_    0.060848 0.707674 0.574243 0.058867
H84   H     H_    0.096122 0.707338 0.706690 0.187071
H85   H     H_    0.509458 0.213896 0.393776 0.096076
H86   H     H_    0.411694 0.210778 0.405172 0.090331
H87   H     H_    0.390201 0.215957 0.277800 0.175124
H88   H     H_    0.385795 0.152955 0.787967 0.157957
H89   H     H_    0.472596 0.208119 0.601144 0.103207
H90   H     H_    0.560832 0.207676 0.574233 0.058851
H91   H     H_    0.596106 0.207341 0.706680 0.187077
H92   H     H_    0.198705 0.408936 0.428056 0.099768
H93   H     H_    0.132351 0.369411 0.302242 0.216842
H94   H     H_    0.144856 0.344222 0.419545 0.148734
H95   H     H_    0.876584 0.416286 0.501169 0.068253
H96   H     H_    0.802098 0.427288 0.546179 0.110305
H97   H     H_    0.832758 0.359061 0.533215 0.186931
H98   H     H_    0.698704 0.908937 0.428057 0.099759
H99   H     H_    0.385699 0.215372 0.854977 0.079249
H100  H     H_    0.632352 0.869411 0.302245 0.216843
H101  H     H_    0.644856 0.844224 0.419549 0.148732
H102  H     H_    0.376577 0.916286 0.501166 0.068253
H103  H     H_    0.302092 0.927287 0.546176 0.110308
H104  H     H_    0.332751 0.859061 0.533212 0.186927
H105  H     H_    0.633150 0.586148 0.485365 0.163841
H106  H     H_    0.745851 0.555228 0.533467 0.111802
H107  H     H_    0.731687 0.628444 0.523635 0.186913
H108  H     H_    0.369953 0.599558 0.512534 0.174997
H109  H     H_    0.265901 0.559605 0.477638 0.117416
H110  H     H_    0.303391 0.205955 0.711504 0.149594
H111  H     H_    0.265047 0.633066 0.472839 0.196466
H112  H     H_    0.133149 0.086145 0.485364 0.163837
H113  H     H_    0.245853 0.055227 0.533468 0.111798
H114  H     H_    0.231686 0.128443 0.523633 0.186917
H115  H     H_    0.869952 0.099561 0.512533 0.175000
H116  H     H_    0.765899 0.059607 0.477636 0.117409
H117  H     H_    0.765045 0.133068 0.472835 0.196462
H118  H     H_    0.009447 0.720735 0.126153 0.080513
H119  H     H_    0.032877 0.735918 0.254270 0.157495
H120  H     H_    0.916163 0.745828 0.133777 0.121786
N1    N     N_R   0.892620 0.603790 0.941770 -0.171015
N2    N     N_R   0.973690 0.529110 0.793240 -0.181766
N3    N     N_R   0.526310 0.029110 0.206760 -0.168673
N4    N     N_R   0.473690 0.029110 0.793240 -0.181764
N5    N     N_R   0.818570 0.472310 0.793020 -0.176579
N6    N     N_R   0.181430 0.472310 0.206980 -0.177570
N7    N     N_R   0.318570 0.972310 0.793020 -0.176580
N8    N     N_R   0.681430 0.972310 0.206980 -0.177568
N9    N     N_R   0.026930 0.472300 0.207330 -0.155023
N10   N     N_R   0.973070 0.472300 0.792670 -0.154951
N11   N     N_R   0.526930 0.972300 0.207330 -0.155024
N12   N     N_R   0.107380 0.603790 0.058230 -0.154614
N13   N     N_R   0.473070 0.972300 0.792670 -0.154948
N14   N     N_R   0.817960 0.529130 0.792460 -0.167597
N15   N     N_R   0.182040 0.529130 0.207540 -0.150424
N16   N     N_R   0.317960 0.029130 0.792460 -0.167599
N17   N     N_R   0.682040 0.029130 0.207540 -0.150422
N18   N     N_R   0.894850 0.397640 0.943830 -0.187152
N19   N     N_R   0.105150 0.397640 0.056170 -0.185174
N20   N     N_R   0.394850 0.897640 0.943830 -0.187151
N21   N     N_R   0.605150 0.897640 0.056170 -0.185172
N22   N     N_R   0.950040 0.603780 0.055950 -0.148112
N23   N     N_R   0.392620 0.103790 0.941770 -0.171016
N24   N     N_R   0.049960 0.603780 0.944050 -0.161863
N25   N     N_R   0.450040 0.103780 0.055950 -0.148112
N26   N     N_R   0.549960 0.103780 0.944050 -0.161876
N27   N     N_R   0.607380 0.103790 0.058230 -0.154617
N28   N     N_R   0.952270 0.397640 0.058010 -0.181603
N29   N     N_R   0.047730 0.397640 0.941990 -0.178057
N30   N     N_R   0.452270 0.897640 0.058010 -0.181604
N31   N     N_R   0.547730 0.897640 0.941990 -0.178055
N32   N     N_R   0.026310 0.529110 0.206760 -0.168672
Ni1   Ni    Ni4+2 0.934160 0.565860 0.869070 0.206030
Ni2   Ni    Ni4+2 0.065840 0.565860 0.130930 0.236259
Ni3   Ni    Ni4+2 0.434160 0.065860 0.869070 0.206032
Ni4   Ni    Ni4+2 0.565840 0.065860 0.130930 0.236258
Ni5   Ni    Ni4+2 0.067260 0.435560 0.132230 0.236793
Ni6   Ni    Ni4+2 0.932740 0.435560 0.867770 0.314450
Ni7   Ni    Ni4+2 0.567260 0.935560 0.132230 0.236797
Ni8   Ni    Ni4+2 0.432740 0.935560 0.867770 0.314454
O1    O     O_3   0.774825 0.659444 0.801492 -0.523860
O2    O     O_3   0.780250 0.642882 0.143477 -0.531593
O3    O     O_3   0.715597 0.138146 0.827535 -0.541089
O4    O     O_3   0.280246 0.142880 0.143473 -0.531591
O5    O     O_3   0.452194 0.615074 0.144498 -0.681342
O6    O     O_3   0.610699 0.701350 0.693686 -0.563521
O7    O     O_3   0.952184 0.115069 0.144492 -0.681332
O8    O     O_3   0.110701 0.201352 0.693685 -0.563520
O9    O     O_3   0.092656 0.424304 0.663876 -0.583673
O10   O     O_3   0.176658 0.447344 0.559586 -0.633267
O11   O     O_3   0.592643 0.924301 0.663866 -0.583661
O12   O     O_3   0.259561 0.641904 0.198317 -0.506339
O13   O     O_3   0.676651 0.947343 0.559585 -0.633266
O14   O     O_3   0.933645 0.638984 0.346772 -0.565395
O15   O     O_3   0.040388 0.632684 0.626677 -0.577658
O16   O     O_3   0.433639 0.138983 0.346767 -0.565395
O17   O     O_3   0.540377 0.132686 0.626671 -0.577654
O18   O     O_3   0.051274 0.407199 0.341732 -0.594094
O19   O     O_3   0.940534 0.402463 0.664946 -0.515912
O20   O     O_3   0.551273 0.907199 0.341731 -0.594092
O21   O     O_3   0.440527 0.902463 0.664944 -0.515910
O22   O     O_3   0.737458 0.594834 0.650090 -0.568228
O23   O     O_3   0.274824 0.159443 0.801492 -0.523859
O24   O     O_3   0.260706 0.596301 0.349582 -0.586120
O25   O     O_3   0.237457 0.094834 0.650089 -0.568227
O26   O     O_3   0.760707 0.096301 0.349581 -0.586118
O27   O     O_3   0.955581 0.664629 0.182357 -0.511383
O28   O     O_3   0.055586 0.659163 0.820630 -0.522006
O29   O     O_3   0.455580 0.164629 0.182356 -0.511385
O30   O     O_3   0.555584 0.159164 0.820630 -0.521996
O31   O     O_3   0.427937 0.510391 0.625832 -0.631788
O32   O     O_3   0.569409 0.478271 0.391728 -0.613459
O33   O     O_3   0.927937 0.010395 0.625833 -0.631792
O34   O     O_3   0.759560 0.141905 0.198316 -0.506334
O35   O     O_3   0.069409 0.978268 0.391730 -0.613456
O36   O     O_3   0.567812 0.414396 0.663869 -0.582727
O37   O     O_3   0.438684 0.392557 0.407544 -0.553622
O38   O     O_3   0.067812 0.914399 0.663876 -0.582731
O39   O     O_3   0.938684 0.892555 0.407554 -0.553620
O40   O     O_3   0.215621 0.638141 0.827537 -0.541091

loop_
_geom_bond_atom_site_label_1
_geom_bond_atom_site_label_2
_ccdc_geom_bond_type
N5    N14   A    
C99   C103  A    
C105  C110  A    
C117  F7    S    
C107  C112  S    
C142  C146  A    
C118  F8    S    
C95   F16   S    
C50   H113  S    
N22   Ni2   S    
C68   C75   S    
N27   Ni4   S    
C27   H45   S    
C13   C139  A    
C60   H23   S    
C14   C102  S    
C40   H84   S    
C57   C152  A    
C100  C104  A    
C20   H2    S    
C47   H102  S    
C41   H86   S    
C23   O38   S    
C34   O9    S    
C16   C104  S    
C59   H19   S    
C21   H28   S    
C32   H61   S    
C70   C74   S    
C140  F26   S    
C132  O13   S    
C6    N20   A    
C10   N25   A    
N10   Ni6   S    
C58   H18   S    
C19   H88   S    
C146  N9    A    
C113  F3    S    
N19   N29   A    
C48   H106  S    
C114  F4    S    
C138  N2    A    
C137  N32   A    
C22   H29   S    
C25   H38   S    
C133  O14   S    
C2    C138  A    
C33   H63   S    
C44   O19   S    
C147  N10   A    
N23   N25   A    
C51   O26   S    
C117  F11   S    
C34   H65   S    
C64   C66   S    
C108  C113  S    
C133  F18   S    
C27   O2    S    
C68   C72   S    
C55   H11   S    
N31   Ni8   S    
C29   H51   S    
C135  F20   S    
C122  C136  S    
C63   C71   S    
C37   O11   S    
C74   C79   S    
C52   O27   S    
N20   N30   A    
C9    O28   S    
C30   H54   S    
N8    Ni7   S    
C149  N13   A    
C85   C90   A    
C59   H21   S    
C94   C109  A    
C3    O26   S    
C53   H5    S    
C36   H69   S    
C93   N28   A    
C8    N22   A    
C66   C73   S    
C66   C70   S    
C56   H15   S    
C52   H118  S    
C37   H74   S    
C76   O23   S    
N26   Ni3   S    
C13   C127  S    
C31   O6    S    
C125  C129  A    
C81   C110  A    
C29   H50   S    
C1    O1    S    
C150  O22   S    
C53   H4    S    
C103  C107  A    
C87   N27   A    
C28   H48   S    
C113  C115  S    
C9    N24   A    
N12   N24   A    
C137  C142  A    
C67   O31   S    
C42   O17   S    
C67   C77   S    
N13   Ni8   S    
C128  C129  A    
N4    Ni3   S    
C42   H91   S    
C32   O7    S    
C116  F6    S    
C7    F35   S    
C152  O25   S    
C28   H47   S    
C55   H9    S    
C31   H57   S    
C60   H22   S    
C29   O4    S    
C17   H33   S    
C18   H55   S    
N2    N10   A    
C16   C87   A    
C35   C150  A    
C47   H103  S    
C134  O15   S    
C110  C114  S    
C5    F32   S    
C92   F39   S    
N3    Ni4   S    
C77   F12   S    
C46   C151  A    
C112  F2    S    
C24   C126  S    
C1    C12   A    
C20   H13   S    
C101  O4    S    
C30   O5    S    
C70   O35   S    
N2    Ni1   S    
C39   H79   S    
C106  C111  S    
C119  C121  A    
C119  C134  S    
C44   H97   S    
C66   O39   S    
C36   H71   S    
C112  O6    S    
C135  O16   S    
C50   H112  S    
N16   Ni3   S    
C2    C147  A    
N7    Ni8   S    
N21   Ni7   S    
C54   H7    S    
C52   H120  S    
C123  C135  S    
C115  F9    S    
C38   H75   S    
C121  C125  A    
C139  F25   S    
N29   Ni6   S    
C75   F1    S    
C123  C127  A    
C76   N23   A    
C58   H16   S    
C8    C12   A    
C19   H110  S    
C34   H68   S    
C64   C69   S    
C75   C77   S    
C96   C131  A    
C139  N3    A    
C93   F14   S    
C113  O7    S    
C96   F17   S    
C78   F23   S    
C31   H56   S    
C69   C79   S    
C42   H89   S    
C58   H17   S    
C44   H95   S    
C63   C68   S    
C57   C144  A    
N23   Ni3   S    
N1    N22   A    
C39   O14   S    
C114  C116  S    
C2    C124  S    
C26   H39   S    
C10   O29   S    
C68   O32   S    
C118  F13   S    
C4    N18   A    
C111  C117  S    
C49   H109  S    
C37   H72   S    
C50   O25   S    
C81   C116  S    
C14   C65   A    
C83   C88   A    
C40   O15   S    
C82   C106  A    
C4    F31   S    
C44   H96   S    
C41   H85   S    
C36   O10   S    
C51   H116  S    
C11   O30   S    
C56   H14   S    
C152  N16   A    
C21   H27   S    
N6    Ni5   S    
C48   O22   S    
C88   C131  S    
C81   C85   A    
C92   C99   A    
C5    N19   A    
C79   F34   S    
C80   C84   A    
C135  C136  S    
C39   H80   S    
C22   H30   S    
C32   H59   S    
C25   H37   S    
C20   H24   S    
C33   H62   S    
C85   C109  S    
C86   C91   A    
C17   H44   S    
C126  C130  A    
C61   C145  A    
C59   O33   S    
C27   H42   S    
C28   H46   S    
C144  F29   S    
N25   Ni4   S    
C150  N14   A    
C20   O34   S    
N12   Ni2   S    
N8    N17   A    
C8    O27   S    
C69   C73   S    
C148  N11   A    
C7    C131  A    
C97   C102  A    
C124  C128  A    
C43   H94   S    
C39   H81   S    
N9    Ni5   S    
C15   C76   A    
C111  F40   S    
C19   H99   S    
C96   N31   A    
C25   O39   S    
C50   H114  S    
C114  O8    S    
C111  O5    S    
C18   O12   S    
C26   O40   S    
C89   C100  A    
C130  O11   S    
C47   O21   S    
C12   C103  S    
C69   O33   S    
C128  O9    S    
N5    Ni6   S    
C97   O40   S    
C61   C73   S    
C82   C86   A    
C36   H70   S    
C130  C132  A    
C9    C14   A    
C58   O32   S    
C62   C63   S    
C41   H87   S    
C144  N7    A    
C33   O8    S    
C11   C16   A    
C23   H35   S    
C80   C115  S    
C49   H111  S    
C37   H73   S    
C91   C97   A    
C38   H78   S    
C46   C71   S    
C63   O37   S    
C87   O34   S    
C35   C72   S    
C133  C134  S    
C53   H3    S    
C49   O24   S    
C48   H105  S    
C151  N15   A    
C104  C108  A    
C23   H34   S    
N19   Ni5   S    
C148  O20   S    
C95   N30   A    
C80   C108  A    
C136  F21   S    
C141  F27   S    
C33   H64   S    
N17   Ni4   S    
N18   N28   A    
C41   O16   S    
C100  O3    S    
C95   C120  A    
C129  O10   S    
C65   O12   S    
C40   H83   S    
C147  O19   S    
C15   C105  S    
C137  F22   S    
N20   Ni8   S    
N15   Ni2   S    
C5    C109  A    
C136  O17   S    
N6    N15   A    
C67   C71   S    
N28   Ni5   S    
C11   N26   A    
C54   O29   S    
C64   O38   S    
C18   H66   S    
N30   Ni7   S    
C43   H92   S    
C62   O36   S    
C56   O31   S    
C64   C74   S    
C82   C117  S    
C51   H117  S    
C71   C75   S    
C21   O36   S    
C30   H53   S    
C4    C98   A    
C70   C78   S    
N18   Ni6   S    
C17   H1    S    
C55   O30   S    
C65   N12   A    
C54   H8    S    
C119  C124  A    
C38   O13   S    
C6    F33   S    
N1    Ni1   S    
C62   C67   S    
C115  F5    S    
C28   O3    S    
C116  F10   S    
C143  N6    A    
C10   C15   A    
C140  N4    A    
C141  N5    A    
N24   Ni1   S    
C38   H76   S    
C127  C132  A    
N3    N11   A    
C88   C92   A    
C53   O28   S    
C73   C78   S    
C48   H107  S    
C27   H43   S    
C146  O18   S    
N11   Ni7   S    
C45   O20   S    
C134  F19   S    
C6    C120  A    
C42   H90   S    
C3    C61   A    
C145  N8    A    
C101  C105  A    
C3    N17   A    
C91   F38   S    
C78   C79   S    
C94   N29   A    
C149  O21   S    
C26   H40   S    
C55   H10   S    
C17   O1    S    
C145  F30   S    
C31   H58   S    
C57   C74   S    
C122  C126  A    
C49   H108  S    
C90   C101  A    
C72   C77   S    
C40   H82   S    
C125  C142  S    
C45   H98   S    
C62   C72   S    
C143  F28   S    
C23   H32   S    
C47   H104  S    
C83   C118  S    
C35   C141  A    
C51   H115  S    
C26   H41   S    
N32   Ni2   S    
C1    N1    A    
C21   H26   S    
C43   O18   S    
C138  F24   S    
N14   Ni1   S    
C84   C89   A    
C24   C140  A    
C59   H20   S    
N9    N32   A    
C151  O24   S    
C45   H101  S    
C94   F15   S    
C86   C120  S    
C46   C143  A    
C56   H12   S    
C22   H31   S    
C32   H60   S    
C25   H36   S    
C54   H6    S    
C52   H119  S    
C7    N21   A    
C84   C98   S    
C19   O23   S    
C60   H25   S    
C112  C118  S    
N4    N13   A    
C60   O35   S    
C89   F36   S    
C45   H100  S    
C83   C107  A    
C34   H67   S    
C102  C106  A    
C24   C149  A    
C22   O37   S    
C99   O2    S    
N7    N16   A    
N21   N31   A    
N26   N27   A    
C29   H49   S    
C30   H52   S    
C13   C148  A    
C121  C133  S    
C122  C123  A    
C93   C98   A    
C18   H77   S    
C43   H93   S    
C90   F37   S    
