data_mof_unit_2651.cif
_audit_creation_date              2012-10-26T17:12:50-0400
_audit_creation_method            fapswitch 2.2
_symmetry_space_group_name_H-M    P1
_symmetry_Int_Tables_number       1
_space_group_crystal_system       triclinic
_cell_length_a                    27.959728
_cell_length_b                    18.795988
_cell_length_c                    16.732271
_cell_angle_alpha                 90.364795
_cell_angle_beta                  63.154394
_cell_angle_gamma                 89.947813
_cell_volume                      7845.40682299

loop_
_atom_site_label
_atom_site_type_symbol
_atom_type_description
_atom_site_fract_x
_atom_site_fract_y
_atom_site_fract_z
_atom_type_partial_charge
C1    C     C_R   0.297379 0.733673 0.328013 0.891920
C2    C     C_R   0.702226 0.265642 0.672211 0.909469
C3    C     C_R   0.705700 0.727703 0.670410 0.924558
C4    C     C_R   0.296646 0.267625 0.327919 0.829756
C5    C     C_R   0.797272 0.233563 0.327917 0.873996
C6    C     C_R   0.202379 0.765590 0.672062 0.909416
C7    C     C_R   0.205456 0.228055 0.670781 0.926187
C8    C     C_R   0.796895 0.767227 0.328104 0.826877
C9    C     C_R   0.398475 0.999664 0.505285 -0.002112
C10   C     C_R   0.596997 0.997617 0.517226 -0.014350
C11   C     C_R   0.897845 0.499264 0.507011 -0.005244
C12   C     C_R   0.096515 0.497258 0.518717 -0.015371
C13   C     C_R   0.576596 0.879317 0.584468 0.285271
C14   C     C_R   0.399723 0.127896 0.514260 0.341553
C15   C     C_R   0.383396 0.878843 0.556830 0.333473
C16   C     C_R   0.614317 0.115951 0.451225 0.356754
C17   C     C_R   0.075668 0.379858 0.588500 0.285386
C18   C     C_R   0.900122 0.627457 0.512863 0.333791
C19   C     C_R   0.881037 0.379567 0.562795 0.347291
C20   C     C_R   0.114467 0.614838 0.450484 0.358122
C21   C     C_R   0.222476 0.765328 0.950800 0.018641
C22   C     C_R   0.781358 0.237835 0.044463 0.012264
C23   C     C_R   0.778633 0.766977 0.047485 0.004526
C24   C     C_R   0.208694 0.251245 0.964211 0.008870
C25   C     C_R   0.717285 0.262361 0.956265 0.026324
C26   C     C_R   0.286157 0.742572 0.040029 0.010897
C27   C     C_R   0.271655 0.275973 0.053662 0.017488
C28   C     C_R   0.716087 0.744744 0.956923 0.000502
C29   C     C_R   0.271316 0.725758 0.906545 -0.073044
C30   C     C_R   0.736511 0.283668 0.083861 -0.062141
C31   C     C_R   0.728311 0.731658 0.092361 -0.084115
C32   C     C_R   0.253357 0.295786 0.925135 -0.050710
C33   C     C_R   0.761993 0.216518 0.917065 -0.062647
C34   C     C_R   0.239903 0.785491 0.080407 -0.056774
C35   C     C_R   0.222993 0.236415 0.097573 -0.086086
C36   C     C_R   0.765702 0.781066 0.912424 -0.073200
C37   C     C_R   0.305115 0.720310 0.949925 0.081196
C38   C     C_R   0.702001 0.290480 0.042866 0.116804
C39   C     C_R   0.695203 0.727027 0.048264 0.083088
C40   C     C_R   0.287409 0.302937 0.966548 0.106908
C41   C     C_R   0.796546 0.209638 0.957944 0.114052
C42   C     C_R   0.205791 0.791286 0.038915 0.118628
C43   C     C_R   0.189388 0.230394 0.054092 0.077388
C44   C     C_R   0.798835 0.785942 0.956285 0.106816
C45   C     C_R   0.141198 0.818314 0.950982 0.029244
C46   C     C_R   0.860096 0.181691 0.047544 0.028939
C47   C     C_R   0.859894 0.817109 0.049094 0.025042
C48   C     C_R   0.135726 0.187067 0.953455 0.021506
C49   C     C_R   0.638434 0.317483 0.953151 0.026013
C50   C     C_R   0.363916 0.686672 0.046083 0.014331
C51   C     C_R   0.354608 0.324950 0.051414 0.026545
C52   C     C_R   0.639047 0.685605 0.950910 0.028300
C53   C     C_R   0.112210 0.839427 0.902614 -0.199007
C54   C     C_R   0.888144 0.160222 0.097083 -0.193846
C55   C     C_R   0.887902 0.839807 0.097972 -0.213766
C56   C     C_R   0.118582 0.148466 0.897187 -0.194828
C57   C     C_R   0.610575 0.338918 0.903476 -0.199100
C58   C     C_R   0.389846 0.661972 0.097071 -0.209334
C59   C     C_R   0.385512 0.342589 0.098029 -0.212883
C60   C     C_R   0.619778 0.648047 0.896354 -0.197022
C61   C     C_R   0.126444 0.807715 0.817801 0.375462
C62   C     C_R   0.873174 0.191158 0.182589 0.296235
C63   C     C_R   0.873025 0.809417 0.183179 0.372635
C64   C     C_R   0.150005 0.152822 0.803334 0.258676
C65   C     C_R   0.625472 0.308167 0.817780 0.371680
C66   C     C_R   0.373960 0.691306 0.183539 0.358210
C67   C     C_R   0.371806 0.309921 0.181710 0.371254
C68   C     C_R   0.650253 0.652628 0.802509 0.257848
C69   C     C_R   0.176292 0.772334 0.772275 -0.178635
C70   C     C_R   0.823331 0.226390 0.227762 -0.210171
C71   C     C_R   0.822632 0.775185 0.228485 -0.199433
C72   C     C_R   0.183641 0.212484 0.767710 -0.130880
C73   C     C_R   0.675389 0.272664 0.772698 -0.180177
C74   C     C_R   0.324042 0.726832 0.227975 -0.178823
C75   C     C_R   0.321346 0.276508 0.228113 -0.198429
C76   C     C_R   0.684546 0.711624 0.766619 -0.130563
C77   C     C_R   0.204367 0.751392 0.821470 -0.034559
C78   C     C_R   0.796556 0.249113 0.177283 -0.007850
C79   C     C_R   0.794002 0.755855 0.179594 -0.074351
C80   C     C_R   0.200787 0.250313 0.824354 -0.033838
C81   C     C_R   0.701884 0.250208 0.823627 -0.018210
C82   C     C_R   0.297891 0.750120 0.176706 -0.018632
C83   C     C_R   0.291565 0.258829 0.180482 -0.075225
C84   C     C_R   0.704519 0.746773 0.821079 -0.047868
C85   C     C_R   0.200312 0.630743 0.514720 0.840083
C86   C     C_R   0.799400 0.368915 0.486746 0.846402
C87   C     C_R   0.801134 0.631255 0.481292 0.850953
C88   C     C_R   0.196937 0.368283 0.527415 0.840257
C89   C     C_R   0.700361 0.130803 0.514642 0.838222
C90   C     C_R   0.299665 0.868963 0.485933 0.857679
C91   C     C_R   0.301071 0.131302 0.481493 0.855270
C92   C     C_R   0.697024 0.868332 0.527092 0.839741
C93   C     C_R   0.189541 0.778901 0.907324 0.079705
C94   C     C_R   0.812522 0.222261 0.090186 0.077876
C95   C     C_R   0.810452 0.780968 0.092768 0.073792
C96   C     C_R   0.182079 0.228852 0.913635 0.075372
C97   C     C_R   0.686052 0.277411 0.910537 0.077766
C98   C     C_R   0.315697 0.725629 0.088168 0.072659
C99   C     C_R   0.305661 0.287433 0.095775 0.075884
C100  C     C_R   0.686945 0.725024 0.909284 0.078488
C101  C     C_R   0.121187 0.828568 0.044107 -0.130432
C102  C     C_R   0.880265 0.170515 0.954187 -0.126071
C103  C     C_R   0.882944 0.819982 0.955357 -0.117677
C104  C     C_R   0.109298 0.186810 0.047942 -0.103479
C105  C     C_R   0.618078 0.328365 0.046597 -0.126125
C106  C     C_R   0.387887 0.682471 0.951964 -0.119940
C107  C     C_R   0.373094 0.336952 0.959025 -0.127117
C108  C     C_R   0.613274 0.686789 0.045012 -0.108270
C109  C     C_R   0.152685 0.814925 0.086946 -0.178229
C110  C     C_R   0.848810 0.183115 0.910868 -0.100210
C111  C     C_R   0.853782 0.800589 0.910142 -0.100026
C112  C     C_R   0.135417 0.210098 0.097193 -0.087962
C113  C     C_R   0.649499 0.316096 0.090032 -0.181532
C114  C     C_R   0.359476 0.701339 0.905117 -0.063883
C115  C     C_R   0.340159 0.326740 0.918049 -0.176932
C116  C     C_R   0.640334 0.710566 0.092539 -0.095609
C117  C     C_R   0.244215 0.698562 0.790210 -0.097466
C118  C     C_R   0.759370 0.305662 0.205693 -0.109199
C119  C     C_R   0.752765 0.705273 0.211076 -0.170909
C120  C     C_R   0.234434 0.310300 0.797928 -0.120296
C121  C     C_R   0.738597 0.193406 0.795950 -0.081273
C122  C     C_R   0.259985 0.805795 0.205511 -0.099120
C123  C     C_R   0.251020 0.207305 0.211558 -0.168337
C124  C     C_R   0.742375 0.801896 0.790997 -0.125642
C125  C     C_R   0.279921 0.687872 0.826469 0.440495
C126  C     C_R   0.731687 0.325770 0.157635 0.350178
C127  C     C_R   0.717858 0.695231 0.173441 0.391293
C128  C     C_R   0.259142 0.334866 0.849303 0.344285
C129  C     C_R   0.766263 0.173833 0.844137 0.355404
C130  C     C_R   0.233066 0.826164 0.156404 0.342531
C131  C     C_R   0.215046 0.197567 0.175894 0.391069
C132  C     C_R   0.776298 0.815518 0.829973 0.414740
C133  C     C_R   0.928784 0.898867 0.064157 0.850681
C134  C     C_R   0.073728 0.097041 0.933862 0.859695
C135  C     C_R   0.071283 0.898814 0.935778 0.899318
C136  C     C_R   0.928826 0.101049 0.064181 0.840547
C137  C     C_R   0.427906 0.399807 0.064541 0.850620
C138  C     C_R   0.573973 0.597165 0.933761 0.852476
C139  C     C_R   0.570639 0.398584 0.936180 0.901879
C140  C     C_R   0.429463 0.601647 0.063908 0.829103
C141  C     C_R   0.061216 0.619632 0.464066 0.005618
C142  C     C_R   0.933066 0.374947 0.556864 0.010871
C143  C     C_R   0.955308 0.624930 0.486302 -0.002161
C144  C     C_R   0.030256 0.375735 0.572038 0.003976
C145  C     C_R   0.560958 0.120834 0.465450 0.007362
C146  C     C_R   0.435650 0.874245 0.549249 -0.007109
C147  C     C_R   0.454940 0.125870 0.487962 0.003285
C148  C     C_R   0.532082 0.875029 0.565881 0.001777
C149  C     C_R   0.039670 0.683532 0.450290 -0.161165
C150  C     C_R   0.950098 0.314443 0.585998 -0.094238
C151  C     C_R   0.986349 0.686838 0.465506 -0.168876
C152  C     C_R   0.997246 0.315209 0.594834 -0.132921
C153  C     C_R   0.538982 0.185003 0.453445 -0.163326
C154  C     C_R   0.453717 0.812719 0.574587 -0.095476
C155  C     C_R   0.485580 0.188123 0.468911 -0.171792
C156  C     C_R   0.500367 0.813518 0.584757 -0.127505
C157  C     C_R   0.977889 0.560084 0.493295 0.052658
C158  C     C_R   0.015639 0.434862 0.536272 0.035004
C159  C     C_R   0.028991 0.558613 0.490132 0.035621
C160  C     C_R   0.966506 0.434862 0.530626 0.023204
C161  C     C_R   0.478047 0.060919 0.493093 0.051317
C162  C     C_R   0.517010 0.934888 0.531971 0.035051
C163  C     C_R   0.529158 0.059480 0.489915 0.036880
C164  C     C_R   0.468086 0.934939 0.525908 0.024066
C165  C     C_R   0.448315 0.998313 0.507901 -0.027839
C166  C     C_R   0.548164 0.996911 0.511676 -0.032852
C167  C     C_R   0.947552 0.497817 0.510067 -0.027576
C168  C     C_R   0.047517 0.496428 0.513594 -0.032465
C169  C     C_R   0.369459 0.936313 0.516584 -0.055969
C170  C     C_R   0.629141 0.059750 0.492405 -0.026519
C171  C     C_R   0.613483 0.936511 0.547730 -0.018689
C172  C     C_R   0.375421 0.065406 0.500553 -0.022367
C173  C     C_R   0.868355 0.436228 0.519544 -0.048224
C174  C     C_R   0.128949 0.559219 0.492832 -0.027082
C175  C     C_R   0.112947 0.436453 0.549790 -0.018909
C176  C     C_R   0.875396 0.565019 0.500467 -0.020473
C177  C     C_R   0.325465 0.935692 0.494713 -0.078461
C178  C     C_R   0.674039 0.063000 0.511170 -0.063400
C179  C     C_R   0.666438 0.935409 0.539238 -0.051874
C180  C     C_R   0.328210 0.065229 0.487218 -0.064980
C181  C     C_R   0.824928 0.435585 0.496200 -0.079322
C182  C     C_R   0.173870 0.562801 0.511585 -0.063380
C183  C     C_R   0.166169 0.435307 0.540269 -0.049861
C184  C     C_R   0.828215 0.565047 0.487118 -0.065602
C185  C     C_R   0.306204 0.000248 0.479607 -0.182522
C186  C     C_R   0.693702 0.999707 0.528855 -0.228000
C187  C     C_R   0.806082 0.500080 0.479931 -0.190980
C188  C     C_R   0.193521 0.499599 0.529455 -0.227381
Cu1   Cu    Cu3+1 0.209920 0.785290 0.495070 1.154975
Cu2   Cu    Cu3+1 0.790080 0.214710 0.504930 1.149624
Cu3   Cu    Cu3+1 0.790080 0.785290 0.504930 1.164408
Cu4   Cu    Cu3+1 0.209920 0.214710 0.495070 1.088410
Cu5   Cu    Cu3+1 0.709920 0.285290 0.495070 1.150581
Cu6   Cu    Cu3+1 0.290080 0.714710 0.504930 1.141024
Cu7   Cu    Cu3+1 0.290080 0.285290 0.504930 1.151518
Cu8   Cu    Cu3+1 0.709920 0.714710 0.495070 1.085065
Cu9   Cu    Cu3+1 0.495240 0.500000 0.924150 1.090061
Cu10  Cu    Cu3+1 0.504760 0.500000 0.075850 1.111452
Cu11  Cu    Cu3+1 0.995240 1.000000 0.924150 1.070056
Cu12  Cu    Cu3+1 0.004760 0.000000 0.075850 1.113999
H1    H     H_    0.510980 0.765285 0.607557 0.184424
H2    H     H_    0.468410 0.238861 0.464915 0.182474
H3    H     H_    0.431238 0.763900 0.588810 0.222041
H4    H     H_    0.561769 0.233764 0.437445 0.194873
H5    H     H_    0.007186 0.267628 0.619863 0.184687
H6    H     H_    0.969490 0.737473 0.460231 0.186927
H7    H     H_    0.926648 0.266286 0.603862 0.196715
H8    H     H_    0.062692 0.732091 0.433174 0.197023
H9    H     H_    0.272278 0.000051 0.464775 0.200338
H10   H     H_    0.731546 0.000102 0.532047 0.199237
H11   H     H_    0.772377 0.499876 0.464521 0.201037
H12   H     H_    0.231469 0.500032 0.532289 0.198948
H13   H     H_    0.080096 0.842781 0.087030 0.210808
H14   H     H_    0.921372 0.156244 0.911333 0.178624
H15   H     H_    0.924790 0.831509 0.915071 0.209895
H16   H     H_    0.068698 0.169496 0.085831 0.223841
H17   H     H_    0.576911 0.342386 0.089323 0.210448
H18   H     H_    0.429849 0.669737 0.912758 0.181383
H19   H     H_    0.414193 0.349119 0.914473 0.213299
H20   H     H_    0.572328 0.670787 0.083494 0.219013
H21   H     H_    0.134693 0.821898 0.158793 0.185797
H22   H     H_    0.866320 0.174168 0.839355 0.162225
H23   H     H_    0.875354 0.795102 0.838778 0.206425
H24   H     H_    0.112756 0.212497 0.168700 0.217885
H25   H     H_    0.631682 0.324548 0.161626 0.185903
H26   H     H_    0.381423 0.704054 0.833691 0.219524
H27   H     H_    0.357252 0.334784 0.846603 0.196392
H28   H     H_    0.617919 0.715411 0.163929 0.212693
H29   H     H_    0.246665 0.662598 0.738164 0.196773
H30   H     H_    0.756397 0.340645 0.259179 0.187992
H31   H     H_    0.750043 0.668036 0.261393 0.218393
H32   H     H_    0.238398 0.342371 0.742090 0.200845
H33   H     H_    0.741411 0.158243 0.742642 0.187850
H34   H     H_    0.255859 0.840208 0.260136 0.192052
H35   H     H_    0.249771 0.169170 0.260046 0.218969
H36   H     H_    0.745579 0.836321 0.737834 0.207893
O1    O     O_R   0.255040 0.869590 0.478480 -0.585477
O2    O     O_R   0.744960 0.130410 0.521520 -0.600962
O3    O     O_R   0.744960 0.869590 0.521520 -0.582622
O4    O     O_R   0.255040 0.130410 0.478480 -0.561464
O5    O     O_R   0.755040 0.369590 0.478480 -0.587973
O6    O     O_R   0.244960 0.630410 0.521520 -0.598080
O7    O     O_R   0.244960 0.369590 0.521520 -0.586264
O8    O     O_R   0.755040 0.630410 0.478480 -0.562129
O9    O     O_R   0.182050 0.796550 0.624440 -0.508407
O10   O     O_R   0.817950 0.203450 0.375560 -0.512517
O11   O     O_R   0.817950 0.796550 0.375560 -0.506787
O12   O     O_R   0.182050 0.203450 0.624440 -0.518862
O13   O     O_R   0.682050 0.296550 0.624440 -0.507760
O14   O     O_R   0.317950 0.703450 0.375560 -0.522814
O15   O     O_R   0.317950 0.296550 0.375560 -0.507561
O16   O     O_R   0.682050 0.703450 0.624440 -0.520157
O17   O     O_R   0.250530 0.763330 0.367210 -0.554425
O18   O     O_R   0.749470 0.236670 0.632790 -0.548816
O19   O     O_R   0.749470 0.763330 0.632790 -0.564536
O20   O     O_R   0.250530 0.236670 0.367210 -0.612800
O21   O     O_R   0.750530 0.263330 0.367210 -0.551035
O22   O     O_R   0.249470 0.736670 0.632790 -0.547804
O23   O     O_R   0.249470 0.263330 0.632790 -0.561327
O24   O     O_R   0.750530 0.736670 0.367210 -0.613862
O25   O     O_R   0.177260 0.690030 0.513710 -0.548393
O26   O     O_R   0.822740 0.309970 0.486290 -0.546654
O27   O     O_R   0.822740 0.690030 0.486290 -0.544514
O28   O     O_R   0.177260 0.309970 0.513710 -0.601949
O29   O     O_R   0.677260 0.190030 0.513710 -0.548917
O30   O     O_R   0.322740 0.809970 0.486290 -0.558461
O31   O     O_R   0.322740 0.190030 0.486290 -0.544775
O32   O     O_R   0.677260 0.809970 0.513710 -0.603947
O33   O     O_R   0.051640 0.926880 0.885090 -0.482999
O34   O     O_R   0.948360 0.073120 0.114910 -0.511243
O35   O     O_R   0.948360 0.926880 0.114910 -0.512708
O36   O     O_R   0.051640 0.073120 0.885090 -0.558832
O37   O     O_R   0.551640 0.426880 0.885090 -0.481497
O38   O     O_R   0.448360 0.573120 0.114910 -0.510840
O39   O     O_R   0.448360 0.426880 0.114910 -0.513634
O40   O     O_R   0.551640 0.573120 0.885090 -0.557054
O41   O     O_R   0.940620 0.926560 0.986760 -0.604585
O42   O     O_R   0.059380 0.073440 0.013240 -0.592098
O43   O     O_R   0.059380 0.926560 0.013240 -0.612184
O44   O     O_R   0.940620 0.073440 0.986760 -0.619909
O45   O     O_R   0.440620 0.426560 0.986760 -0.609199
O46   O     O_R   0.559380 0.573440 0.013240 -0.589069
O47   O     O_R   0.559380 0.426560 0.013240 -0.614007
O48   O     O_R   0.440620 0.573440 0.986760 -0.611163
S1    S     S_3+6 0.572849 0.831324 0.679346 0.024445
O49   O     O_2   0.613686 0.856788 0.708091 -0.296249
O50   O     O_2   0.518033 0.843544 0.755594 -0.220287
O51   O     O_3   0.580485 0.743201 0.658936 -0.534393
H37   H     H_    0.594903 0.737284 0.593326 0.337834
S2    S     S_3+6 0.363363 0.178389 0.614275 0.036428
O52   O     O_2   0.361550 0.255500 0.592340 -0.298500
O53   O     O_2   0.307293 0.150658 0.664995 -0.247928
O54   O     O_3   0.393951 0.171472 0.680539 -0.488188
H38   H     H_    0.420072 0.210985 0.662828 0.358396
S3    S     S_3+6 0.332995 0.842296 0.656011 0.014341
O55   O     O_2   0.334221 0.763298 0.643301 -0.256571
O56   O     O_2   0.345358 0.858041 0.732964 -0.263931
O57   O     O_3   0.272248 0.876203 0.680521 -0.551702
H39   H     H_    0.273046 0.925733 0.700442 0.386554
S4    S     S_3+6 0.662672 0.154223 0.350348 0.002958
O58   O     O_2   0.661536 0.233777 0.360107 -0.320396
O59   O     O_2   0.717929 0.126226 0.325816 -0.300598
O60   O     O_3   0.647143 0.133022 0.266955 -0.495120
H40   H     H_    0.625911 0.173726 0.262651 0.354283
S5    S     S_3+6 0.073452 0.331745 0.682242 0.020998
O61   O     O_2   0.115255 0.356963 0.708874 -0.298269
O62   O     O_2   0.019240 0.343847 0.760125 -0.223013
O63   O     O_3   0.080836 0.243712 0.661150 -0.536265
H41   H     H_    0.093663 0.238105 0.595818 0.337676
S6    S     S_3+6 0.864241 0.678636 0.612298 0.047613
O64   O     O_2   0.862148 0.755236 0.588793 -0.258999
O65   O     O_2   0.808271 0.650836 0.664124 -0.255701
O66   O     O_3   0.895312 0.673199 0.677963 -0.490465
H42   H     H_    0.923410 0.710243 0.655900 0.368336
S7    S     S_3+6 0.829276 0.346405 0.663446 0.007546
O67   O     O_2   0.829920 0.266753 0.658346 -0.290829
O68   O     O_2   0.840133 0.367778 0.740482 -0.262509
O69   O     O_3   0.769054 0.379149 0.682603 -0.547340
H43   H     H_    0.769134 0.429319 0.701044 0.389202
S8    S     S_3+6 0.163267 0.652904 0.349791 0.000547
O70   O     O_2   0.162080 0.732486 0.359209 -0.320948
O71   O     O_2   0.218441 0.625033 0.326159 -0.306353
O72   O     O_3   0.148320 0.631357 0.265846 -0.494923
H44   H     H_    0.127492 0.672167 0.260604 0.354769
S9    S     S_3+6 0.076714 0.795806 0.779811 0.033969
O73   O     O_2   0.087018 0.728085 0.726088 -0.296146
O74   O     O_2   0.022302 0.791080 0.858928 -0.320745
O75   O     O_3   0.077957 0.865036 0.715696 -0.466934
H45   H     H_    0.048598 0.855695 0.699347 0.364125
S10   S     S_3+6 0.922893 0.205496 0.219884 0.036668
O76   O     O_2   0.924111 0.143782 0.275623 -0.217684
O77   O     O_2   0.976803 0.212754 0.140359 -0.329307
O78   O     O_3   0.910171 0.280588 0.281567 -0.511885
H46   H     H_    0.910064 0.318952 0.241327 0.335767
S11   S     S_3+6 0.922793 0.797125 0.221141 0.030524
O79   O     O_2   0.912902 0.729013 0.272838 -0.299457
O80   O     O_2   0.977527 0.792965 0.142426 -0.306847
O81   O     O_3   0.920686 0.865871 0.287515 -0.496858
H47   H     H_    0.948524 0.854917 0.306902 0.366291
S12   S     S_3+6 0.159446 0.075128 0.734663 0.076489
O82   O     O_2   0.215924 0.072588 0.661325 -0.267672
O83   O     O_2   0.150371 0.008865 0.789319 -0.269685
O84   O     O_3   0.117156 0.075572 0.688180 -0.453803
H48   H     H_    0.091336 0.114544 0.718561 0.360063
S13   S     S_3+6 0.576384 0.297848 0.777886 0.038791
O85   O     O_2   0.586259 0.229973 0.724569 -0.297419
O86   O     O_2   0.521220 0.294678 0.855536 -0.304410
O87   O     O_3   0.579736 0.367191 0.712516 -0.464786
H49   H     H_    0.551078 0.358570 0.694311 0.363624
S14   S     S_3+6 0.422920 0.703386 0.223086 0.025562
O88   O     O_2   0.422006 0.641206 0.279844 -0.261851
O89   O     O_2   0.477485 0.709229 0.144747 -0.322136
O90   O     O_3   0.410549 0.778899 0.283949 -0.540392
H50   H     H_    0.436182 0.778218 0.309815 0.372534
S15   S     S_3+6 0.422408 0.295001 0.217157 0.029954
O91   O     O_2   0.412102 0.226399 0.267984 -0.296651
O92   O     O_2   0.476519 0.290099 0.137047 -0.307459
O93   O     O_3   0.422229 0.362576 0.283676 -0.499832
H51   H     H_    0.451168 0.350867 0.300164 0.364069
S16   S     S_3+6 0.659045 0.575006 0.733992 0.076477
O94   O     O_2   0.715421 0.572054 0.660347 -0.269110
O95   O     O_2   0.649804 0.508669 0.788573 -0.268404
O96   O     O_3   0.616518 0.576102 0.687985 -0.452478
H52   H     H_    0.590735 0.614987 0.718925 0.360661
S17   S     S_3+6 0.329713 0.620886 0.770674 0.051825
O97   O     O_2   0.338929 0.576889 0.837005 -0.277013
O98   O     O_2   0.312556 0.572792 0.716380 -0.207948
O99   O     O_3   0.387622 0.658770 0.698937 -0.556864
H53   H     H_    0.413556 0.618911 0.674694 0.376269
S18   S     S_3+6 0.707830 0.414740 0.173466 0.059633
O100  O     O_2   0.652112 0.418364 0.249643 -0.280999
O101  O     O_2   0.744037 0.460219 0.196647 -0.212630
O102  O     O_3   0.708615 0.446656 0.079014 -0.466172
H54   H     H_    0.670838 0.457921 0.094388 0.385141
S19   S     S_3+6 0.668175 0.628266 0.226486 0.029232
O103  O     O_2   0.659356 0.585113 0.158506 -0.264208
O104  O     O_2   0.685131 0.578895 0.279370 -0.211090
O105  O     O_3   0.610386 0.667049 0.299080 -0.572906
H55   H     H_    0.583980 0.627878 0.320758 0.386482
S20   S     S_3+6 0.279540 0.424662 0.835513 0.063693
O106  O     O_2   0.336463 0.430185 0.763781 -0.258847
O107  O     O_2   0.243893 0.466442 0.807380 -0.211492
O108  O     O_3   0.273328 0.458914 0.933080 -0.479973
H56   H     H_    0.310219 0.463170 0.926409 0.378371
S21   S     S_3+6 0.788256 0.084534 0.830745 0.052826
O109  O     O_2   0.791185 0.058760 0.913326 -0.257423
O110  O     O_2   0.748318 0.039490 0.816590 -0.207941
O111  O     O_3   0.848320 0.077203 0.740153 -0.487304
H57   H     H_    0.873831 0.062733 0.763160 0.353865
S22   S     S_3+6 0.207984 0.914597 0.173984 0.061453
O112  O     O_2   0.152112 0.916539 0.249861 -0.281647
O113  O     O_2   0.243378 0.960424 0.198661 -0.206397
O114  O     O_3   0.208633 0.947484 0.080066 -0.465966
H58   H     H_    0.170749 0.957989 0.095410 0.384865
S23   S     S_3+6 0.166773 0.128902 0.228235 0.030724
O115  O     O_2   0.158377 0.085712 0.159845 -0.265665
O116  O     O_2   0.185009 0.079836 0.279686 -0.211091
O117  O     O_3   0.108454 0.165653 0.302158 -0.565007
H59   H     H_    0.082814 0.125600 0.323429 0.389468
S24   S     S_3+6 0.826193 0.881592 0.774889 0.055111
O118  O     O_2   0.877548 0.846227 0.710282 -0.310018
O119  O     O_2   0.808991 0.929968 0.721473 -0.187916
O120  O     O_3   0.837016 0.930608 0.849468 -0.477637
H60   H     H_    0.875774 0.941836 0.819601 0.354350

loop_
_geom_bond_atom_site_label_1
_geom_bond_atom_site_label_2
_ccdc_geom_bond_type
C92   O3    A    
C85   C182  S    
C35   C131  A    
S2    O54   S    
Cu3   O11   S    
C9    C169  A    
C34   C42   A    
Cu1   O1    S    
C154  H3    S    
C181  C187  A    
O78   H46   S    
Cu12  O34   S    
C27   C99   A    
C170  C178  A    
C175  C183  A    
C42   C109  A    
C11   C173  A    
C24   C96   A    
C133  O35   A    
C133  O41   A    
C30   C38   A    
C24   C32   A    
Cu3   Cu8   S    
C7    O23   A    
Cu1   Cu6   S    
C68   S16   S    
C101  H13   S    
Cu4   O20   S    
C14   S2    S    
C155  H2    S    
C147  C155  A    
C119  H31   S    
C14   C172  A    
C143  C151  A    
S8    O72   S    
C90   C177  S    
Cu11  Cu12  S    
C11   C167  A    
C112  H24   S    
C157  C167  A    
C91   O31   A    
C2    O18   A    
C73   C81   A    
O99   H53   S    
C161  C163  A    
C162  C164  A    
S6    O65   D    
C50   C98   A    
S10   O76   D    
O72   H44   S    
C84   C100  A    
Cu4   Cu7   S    
C131  S23   S    
S12   O82   D    
C104  H16   S    
C121  C129  A    
S11   O80   D    
S22   O113  D    
C37   C114  A    
C27   C35   A    
C10   C171  A    
C55   C133  S    
C21   C29   A    
C137  O39   A    
C81   C121  A    
C23   C31   A    
Cu4   O28   S    
C115  H27   S    
C5    C70   S    
C124  H36   S    
C22   C41   A    
C113  H25   S    
S15   O91   D    
C146  C154  A    
Cu12  O43   S    
S13   O87   S    
C107  H19   S    
C13   S1    S    
C122  H34   S    
C63   C71   A    
C105  H17   S    
C185  H9    S    
C36   C44   A    
O57   H39   S    
O108  H56   S    
C109  H21   S    
S4    O58   D    
C12   C174  A    
C58   C140  S    
C176  C184  A    
C8    C71   S    
C48   C96   A    
C89   O2    A    
Cu7   O23   S    
C56   C134  S    
S19   O103  D    
O114  H58   S    
C148  C162  A    
S1    O50   D    
C183  C188  A    
C188  H12   S    
C142  C150  A    
C21   C93   A    
C78   C94   A    
C9    C165  A    
C85   O6    A    
C23   C95   A    
S14   O88   D    
C49   C97   A    
S11   O79   D    
C92   O32   A    
C125  S17   S    
C51   C107  A    
C24   C43   A    
Cu1   O17   S    
O105  H55   S    
S17   O97   D    
C86   O26   A    
C161  C165  A    
C17   C175  A    
C60   C138  S    
S20   O106  D    
S21   O110  D    
C18   C176  A    
C6    C69   S    
C8    O24   A    
C29   C125  A    
C69   C77   A    
Cu6   O30   S    
S12   O84   S    
C31   C127  A    
C5    O10   A    
C45   C93   A    
C120  H32   S    
C88   O7    A    
C71   C79   A    
S18   O100  D    
S3    O56   D    
C179  C186  A    
S8    O71   D    
C62   C70   A    
C11   C176  A    
C17   C144  A    
C1    C74   S    
C105  C113  A    
C18   C143  A    
C78   C118  A    
C149  C151  A    
Cu4   O4    S    
C134  O36   A    
C66   C74   A    
C135  O33   A    
C49   C57   A    
C124  C132  A    
C61   S9    S    
S9    O74   D    
O87   H49   S    
C52   C60   A    
C59   C67   A    
C53   C61   A    
C141  C159  A    
C20   C174  A    
C8    O11   A    
O111  H57   S    
S5    O62   D    
C55   C63   A    
C86   C181  S    
Cu6   O14   S    
C35   C43   A    
S4    O60   S    
Cu11  O33   S    
C45   C53   A    
Cu10  O46   S    
C22   C94   A    
C171  C179  A    
C140  O48   A    
C156  H1    S    
C149  H8    S    
C169  C177  A    
S16   O94   D    
Cu2   O10   S    
Cu3   O3    S    
C18   S6    S    
C2    O13   A    
C7    C72   S    
C104  C112  A    
Cu9   O40   S    
C62   S10   S    
C63   S11   S    
Cu10  O39   S    
C145  C163  A    
C187  H11   S    
C146  C164  A    
C14   C147  A    
C52   C100  A    
C21   C42   A    
C79   C119  A    
C16   C145  A    
C178  C186  A    
C132  S24   S    
O54   H38   S    
C25   C38   A    
C46   C94   A    
C27   C40   A    
C10   C166  A    
C91   C180  S    
Cu8   O16   S    
C5    O21   A    
C182  C188  A    
C89   C178  S    
C28   C36   A    
C2    C73   S    
S20   O108  S    
C25   C97   A    
S15   O92   D    
C39   C116  A    
Cu12  O42   S    
Cu8   O32   S    
C153  C155  A    
C4    O20   A    
C17   S5    S    
C87   O27   A    
C88   O28   A    
Cu2   O18   S    
S19   O105  S    
Cu7   O7    S    
S7    O69   S    
C22   C30   A    
Cu5   O5    S    
C20   C141  A    
S24   O118  D    
C15   C146  A    
C68   C76   A    
C16   S4    S    
Cu4   O12   S    
C184  C187  A    
C66   S14   S    
C19   S7    S    
C32   C128  A    
C144  C152  A    
C87   O8    A    
C130  S22   S    
C117  H29   S    
C82   C122  A    
C89   O29   A    
Cu9   Cu10  S    
Cu9   O45   S    
C173  C181  A    
C13   C171  A    
C67   C75   A    
C139  O37   A    
C117  C125  A    
S16   O96   S    
C25   C33   A    
C116  H28   S    
C119  C127  A    
C20   S8    S    
C82   C98   A    
Cu2   O2    S    
C76   C84   A    
C80   C120  A    
O90   H50   S    
C158  C168  A    
S10   O77   D    
C135  O43   A    
C164  C165  A    
C136  O44   A    
S12   O83   D    
S23   O117  S    
C40   C115  A    
C101  C109  A    
C177  C185  A    
C57   C139  S    
C103  C111  A    
S2    O52   D    
C4    C75   S    
Cu2   Cu5   S    
C162  C166  A    
C102  H14   S    
C1    O17   A    
S10   O78   S    
C53   C135  S    
C91   O4    A    
Cu5   O21   S    
O96   H52   S    
S13   O86   D    
Cu7   O31   S    
C154  C156  A    
C172  C180  A    
C137  O45   A    
S7    O67   D    
C157  C159  A    
C83   C99   A    
C158  C160  A    
C174  C182  A    
C74   C82   A    
S24   O120  S    
S4    O59   D    
C47   C103  A    
C50   C58   A    
C163  C166  A    
C147  C161  A    
C85   O25   A    
S3    O55   D    
C38   C113  A    
O75   H45   S    
C49   C105  A    
C54   C62   A    
S14   O90   S    
Cu3   O19   S    
C23   C44   A    
C134  O42   A    
C19   C173  A    
C79   C95   A    
S1    O49   D    
C92   C179  S    
C114  H26   S    
Cu9   O37   S    
C46   C54   A    
Cu1   O25   S    
C111  H23   S    
C65   S13   S    
C45   C101  A    
C123  H35   S    
C106  H18   S    
C106  C114  A    
C19   C142  A    
C121  H33   S    
C186  H10   S    
C102  C110  A    
C110  H22   S    
C103  H15   S    
S20   O107  D    
S21   O109  D    
C33   C129  A    
S6    O64   D    
C64   S12   S    
C90   O1    A    
C123  C131  A    
C4    O15   A    
C57   C65   A    
S11   O81   S    
S18   O101  D    
S23   O115  D    
C120  C128  A    
C26   C37   A    
S22   O112  D    
C139  O47   A    
C10   C170  A    
C28   C39   A    
C6    O22   A    
C33   C41   A    
C108  C116  A    
C36   C132  A    
O51   H37   S    
C75   C83   A    
O66   H42   S    
Cu11  O41   S    
C86   O5    A    
C77   C93   A    
S9    O73   D    
S18   O102  S    
C108  H20   S    
C44   C111  A    
C16   C170  A    
C60   C68   A    
C72   C80   A    
S5    O61   D    
C29   C37   A    
C50   C106  A    
C9    C172  A    
C148  C156  A    
C83   C123  A    
Cu11  O36   S    
S6    O66   S    
Cu12  O35   S    
O84   H48   S    
C30   C126  A    
C70   C78   A    
C6    O9    A    
O120  H60   S    
S22   O114  S    
S16   O95   D    
C141  C149  A    
C46   C102  A    
C15   S3    S    
Cu8   O8    S    
C90   O30   A    
C150  H7    S    
S1    O51   S    
C77   C117  A    
S17   O98   D    
C59   C137  S    
C48   C104  A    
C65   C73   A    
C159  C168  A    
C15   C169  A    
C160  C167  A    
C140  O38   A    
Cu8   O24   S    
Cu2   O26   S    
C58   C66   A    
Cu11  O44   S    
Cu7   O15   S    
Cu5   O13   S    
C80   C96   A    
C129  S21   S    
C153  H4    S    
C145  C153  A    
C28   C100  A    
C32   C40   A    
C52   C108  A    
O60   H40   S    
C138  O46   A    
C26   C34   A    
C143  C157  A    
S3    O57   S    
S19   O104  D    
C51   C99   A    
S7    O68   D    
C127  S19   S    
Cu1   O9    S    
C152  H5    S    
C3    O16   A    
S24   O119  D    
C87   C184  S    
C1    O14   A    
C88   C183  S    
C7    O12   A    
C138  O40   A    
Cu6   O22   S    
Cu3   O27   S    
C126  S18   S    
S9    O75   S    
S14   O89   D    
O69   H43   S    
S5    O63   S    
C54   C136  S    
C56   C64   A    
C3    C76   S    
C107  C115  A    
C26   C98   A    
C12   C175  A    
C41   C110  A    
C150  C152  A    
C51   C59   A    
C43   C112  A    
C144  C158  A    
O63   H41   S    
C47   C55   A    
C61   C69   A    
C48   C56   A    
Cu6   O6    S    
C142  C160  A    
C12   C168  A    
Cu10  O38   S    
C84   C124  A    
C67   S15   S    
Cu5   O29   S    
S8    O70   D    
S21   O111  S    
S17   O99   S    
O102  H54   S    
S23   O116  D    
C128  S20   S    
C81   C97   A    
C118  H30   S    
C31   C39   A    
S2    O53   D    
C64   C72   A    
C151  H6    S    
O93   H51   S    
C3    O19   A    
Cu9   O48   S    
C180  C185  A    
Cu10  O47   S    
S15   O93   S    
C34   C130  A    
O81   H47   S    
C47   C95   A    
O117  H59   S    
C136  O34   A    
C118  C126  A    
C13   C148  A    
S13   O85   D    
C122  C130  A    
