data_mof_unit_3764.cif
_audit_creation_date              2012-12-10T17:19:11-0500
_audit_creation_method            fapswitch 2.2
_symmetry_space_group_name_H-M    P1
_symmetry_Int_Tables_number       1
_space_group_crystal_system       triclinic
_cell_length_a                    18.411241
_cell_length_b                    18.349476
_cell_length_c                    34.242115
_cell_angle_alpha                 89.925481
_cell_angle_beta                  89.880845
_cell_angle_gamma                 89.264984
_cell_volume                      11567.2542836

loop_
_atom_site_label
_atom_site_type_symbol
_atom_type_description
_atom_site_fract_x
_atom_site_fract_y
_atom_site_fract_z
_atom_type_partial_charge
C1    C     C_R   0.581214 0.103745 0.519888 0.119432
C2    C     C_R   0.411494 0.897248 0.479453 0.124360
C3    C     C_R   0.088089 0.598724 0.519806 0.139060
C4    C     C_R   0.929390 0.383323 0.479680 0.138367
C5    C     C_R   0.408734 0.899721 0.520927 0.144566
C6    C     C_R   0.594852 0.091028 0.479830 0.143507
C7    C     C_R   0.924848 0.386643 0.521108 0.148395
C8    C     C_R   0.099737 0.587956 0.479272 0.125656
C9    C     C_R   0.119745 0.566196 0.020531 0.141039
C10   C     C_R   0.900091 0.414175 0.980075 0.138489
C11   C     C_R   0.588191 0.098107 0.019794 0.138642
C12   C     C_R   0.434742 0.879066 0.979544 0.140920
C13   C     C_R   0.910246 0.402331 0.020616 0.124176
C14   C     C_R   0.117032 0.570581 0.979077 0.152071
C15   C     C_R   0.430179 0.882046 0.020997 0.152847
C16   C     C_R   0.599740 0.087583 0.979234 0.127902
C17   C     C_R   0.313808 0.738578 0.727897 0.004236
C18   C     C_R   0.709848 0.234683 0.288308 0.026627
C19   C     C_R   0.207121 0.261519 0.716036 0.018859
C20   C     C_R   0.793429 0.739035 0.283815 0.016288
C21   C     C_R   0.691245 0.258636 0.723915 0.024642
C22   C     C_R   0.304324 0.744525 0.276002 0.014050
C23   C     C_R   0.793526 0.739146 0.716203 0.023533
C24   C     C_R   0.205222 0.259711 0.283543 0.018825
C25   C     C_R   0.259943 0.205324 0.283542 0.018079
C26   C     C_R   0.738928 0.793653 0.716151 0.019907
C27   C     C_R   0.264804 0.681043 0.268860 0.005686
C28   C     C_R   0.732657 0.319898 0.734180 0.013132
C29   C     C_R   0.738744 0.793438 0.283838 0.018251
C30   C     C_R   0.261756 0.207068 0.715975 0.018737
C31   C     C_R   0.762901 0.290044 0.288956 0.032330
C32   C     C_R   0.249424 0.700286 0.721815 0.013141
C33   C     C_R   0.814946 0.237625 0.228901 0.005237
C34   C     C_R   0.210534 0.734114 0.788318 0.027536
C35   C     C_R   0.706986 0.761211 0.216084 0.017731
C36   C     C_R   0.292933 0.238362 0.783913 0.017652
C37   C     C_R   0.210504 0.736654 0.210506 0.032577
C38   C     C_R   0.806758 0.244028 0.777802 0.023943
C39   C     C_R   0.294485 0.240316 0.216488 0.017394
C40   C     C_R   0.706079 0.760965 0.783739 0.022776
C41   C     C_R   0.760868 0.706651 0.783908 0.019915
C42   C     C_R   0.239824 0.294761 0.216542 0.018672
C43   C     C_R   0.765857 0.182475 0.767526 0.011537
C44   C     C_R   0.266158 0.789442 0.211284 0.026972
C45   C     C_R   0.238133 0.292642 0.784050 0.019251
C46   C     C_R   0.761509 0.706644 0.216138 0.016204
C47   C     C_R   0.264004 0.789060 0.789001 0.032357
C48   C     C_R   0.750764 0.199246 0.222416 0.012268
C49   C     C_R   0.314877 0.793069 0.757451 -0.110813
C50   C     C_R   0.700006 0.193015 0.253442 -0.091190
C51   C     C_R   0.195827 0.303898 0.750062 -0.047417
C52   C     C_R   0.804216 0.696039 0.249994 -0.049022
C53   C     C_R   0.702791 0.191437 0.744146 -0.115122
C54   C     C_R   0.308461 0.798140 0.246029 -0.094043
C55   C     C_R   0.804091 0.696094 0.750098 -0.041758
C56   C     C_R   0.195673 0.303929 0.250041 -0.043837
C57   C     C_R   0.304159 0.196107 0.250022 -0.045968
C58   C     C_R   0.695713 0.804025 0.749906 -0.040759
C59   C     C_R   0.207524 0.683853 0.241170 -0.113812
C60   C     C_R   0.796172 0.310367 0.756928 -0.116232
C61   C     C_R   0.695898 0.803973 0.249994 -0.047321
C62   C     C_R   0.304185 0.196009 0.749908 -0.047836
C63   C     C_R   0.814875 0.293146 0.257854 -0.111974
C64   C     C_R   0.199737 0.693244 0.753271 -0.089375
C65   C     C_R   0.457038 0.949748 0.582187 -0.189935
C66   C     C_R   0.544321 0.046956 0.418336 -0.187684
C67   C     C_R   0.959288 0.448326 0.582183 -0.190626
C68   C     C_R   0.047512 0.543454 0.418135 -0.193747
C69   C     C_R   0.538025 0.052070 0.581547 -0.199007
C70   C     C_R   0.457987 0.949145 0.417947 -0.183703
C71   C     C_R   0.045667 0.546007 0.581602 -0.187141
C72   C     C_R   0.962271 0.444745 0.418103 -0.187718
C73   C     C_R   0.955681 0.453505 0.081811 -0.192185
C74   C     C_R   0.054011 0.538969 0.917862 -0.170333
C75   C     C_R   0.461191 0.945882 0.082129 -0.171408
C76   C     C_R   0.546938 0.043562 0.918173 -0.194194
C77   C     C_R   0.056655 0.535945 0.081976 -0.184338
C78   C     C_R   0.953847 0.455540 0.918394 -0.198172
C79   C     C_R   0.545321 0.045580 0.081569 -0.188450
C80   C     C_R   0.464427 0.942543 0.918043 -0.182666
C81   C     C_R   0.498495 0.000502 0.601897 -0.022872
C82   C     C_R   0.500493 0.999139 0.398106 -0.025143
C83   C     C_R   0.001018 0.498762 0.601899 -0.021944
C84   C     C_R   0.001684 0.497076 0.398140 -0.016649
C85   C     C_R   0.003073 0.498185 0.101850 -0.016725
C86   C     C_R   0.002133 0.499005 0.898135 -0.015940
C87   C     C_R   0.501230 0.997800 0.101852 -0.020529
C88   C     C_R   0.501893 0.996462 0.898152 -0.014938
C89   C     C_R   0.538821 0.052528 0.540698 0.094630
C90   C     C_R   0.455981 0.947522 0.458959 0.079142
C91   C     C_R   0.046758 0.546465 0.540677 0.096152
C92   C     C_R   0.965863 0.439448 0.459068 0.079229
C93   C     C_R   0.454148 0.949106 0.541220 0.080753
C94   C     C_R   0.546801 0.045379 0.459157 0.097469
C95   C     C_R   0.962843 0.442262 0.541294 0.083761
C96   C     C_R   0.052289 0.540993 0.458925 0.093147
C97   C     C_R   0.062247 0.531893 0.041033 0.081340
C98   C     C_R   0.953378 0.454250 0.959293 0.097022
C99   C     C_R   0.547188 0.045515 0.040654 0.095608
C100  C     C_R   0.468845 0.936725 0.958987 0.081360
C101  C     C_R   0.958269 0.448576 0.041026 0.095052
C102  C     C_R   0.060092 0.534854 0.958775 0.087324
C103  C     C_R   0.465783 0.939256 0.041247 0.087641
C104  C     C_R   0.552565 0.040386 0.958912 0.094397
C105  C     C_R   0.000165 0.500130 0.644281 0.802636
C106  C     C_R   0.000128 0.499619 0.355740 0.806455
C107  C     C_R   0.499901 0.000093 0.644252 0.813989
C108  C     C_R   0.500178 0.999892 0.355747 0.804813
C109  C     C_R   0.500169 0.999755 0.144263 0.796198
C110  C     C_R   0.500143 0.999442 0.855746 0.804301
C111  C     C_R   0.000384 0.499841 0.144229 0.808079
C112  C     C_R   0.000338 0.499874 0.855758 0.796282
C113  C     C_R   0.860168 0.639777 0.750087 0.774328
C114  C     C_R   0.139595 0.360091 0.250071 0.774580
C115  C     C_R   0.363467 0.856551 0.752523 0.810331
C116  C     C_R   0.640609 0.139892 0.250473 0.795093
C117  C     C_R   0.139812 0.360180 0.750052 0.781240
C118  C     C_R   0.860284 0.639871 0.250020 0.786221
C119  C     C_R   0.642919 0.137618 0.747605 0.803584
C120  C     C_R   0.360361 0.858943 0.249481 0.796141
C121  C     C_R   0.863506 0.356543 0.252632 0.811214
C122  C     C_R   0.140557 0.639908 0.750465 0.793654
C123  C     C_R   0.360318 0.139904 0.249969 0.778903
C124  C     C_R   0.639755 0.860272 0.749919 0.774342
C125  C     C_R   0.143575 0.636169 0.247073 0.810153
C126  C     C_R   0.856862 0.362898 0.752664 0.800596
C127  C     C_R   0.639742 0.860113 0.249977 0.778950
C128  C     C_R   0.360189 0.139777 0.749930 0.786064
C129  C     C_R   0.238280 0.668989 0.684451 -0.253712
C130  C     C_R   0.762789 0.338391 0.321557 -0.290239
C131  C     C_R   0.271705 0.163736 0.682097 -0.280232
C132  C     C_R   0.729258 0.837294 0.317558 -0.280870
C133  C     C_R   0.708217 0.389752 0.721968 -0.266441
C134  C     C_R   0.282999 0.617621 0.290563 -0.251505
C135  C     C_R   0.729721 0.837714 0.682459 -0.282699
C136  C     C_R   0.268195 0.160247 0.316919 -0.278020
C137  C     C_R   0.160185 0.267702 0.316916 -0.283661
C138  C     C_R   0.837423 0.729989 0.682468 -0.274642
C139  C     C_R   0.339367 0.750364 0.312765 -0.262876
C140  C     C_R   0.640364 0.267122 0.693126 -0.272563
C141  C     C_R   0.837275 0.729895 0.317485 -0.278817
C142  C     C_R   0.163839 0.271264 0.682190 -0.276895
C143  C     C_R   0.667531 0.224075 0.322627 -0.275597
C144  C     C_R   0.373851 0.721702 0.703337 -0.248695
C145  C     C_R   0.740954 0.167302 0.185097 -0.257796
C146  C     C_R   0.265574 0.836152 0.822083 -0.291283
C147  C     C_R   0.771193 0.662823 0.182424 -0.279040
C148  C     C_R   0.227865 0.335476 0.818089 -0.279020
C149  C     C_R   0.277008 0.832040 0.177067 -0.277815
C150  C     C_R   0.790119 0.113199 0.780804 -0.261486
C151  C     C_R   0.231442 0.339948 0.183217 -0.286189
C152  C     C_R   0.770147 0.663083 0.817782 -0.280296
C153  C     C_R   0.661735 0.770091 0.817305 -0.282604
C154  C     C_R   0.339245 0.232288 0.183011 -0.277821
C155  C     C_R   0.855781 0.237170 0.809504 -0.267916
C156  C     C_R   0.162151 0.737280 0.178042 -0.292403
C157  C     C_R   0.336372 0.228610 0.817693 -0.277424
C158  C     C_R   0.663811 0.770847 0.182196 -0.280915
C159  C     C_R   0.168856 0.723029 0.822825 -0.279407
C160  C     C_R   0.875957 0.219964 0.205253 -0.250111
C161  C     C_R   0.295762 0.659702 0.658255 0.365931
C162  C     C_R   0.708288 0.336601 0.349784 0.371169
C163  C     C_R   0.229478 0.175000 0.648813 0.403301
C164  C     C_R   0.772141 0.826689 0.350673 0.404542
C165  C     C_R   0.652431 0.397808 0.694821 0.389581
C166  C     C_R   0.325354 0.621593 0.324118 0.380869
C167  C     C_R   0.772617 0.827112 0.649306 0.407358
C168  C     C_R   0.223983 0.169536 0.349727 0.406014
C169  C     C_R   0.169762 0.223509 0.349730 0.402725
C170  C     C_R   0.826624 0.772989 0.649294 0.406870
C171  C     C_R   0.350181 0.689209 0.336485 0.372441
C172  C     C_R   0.620551 0.335938 0.679043 0.370584
C173  C     C_R   0.826392 0.772790 0.350629 0.407112
C174  C     C_R   0.175337 0.229007 0.648853 0.405120
C175  C     C_R   0.662288 0.277405 0.351287 0.374573
C176  C     C_R   0.365005 0.682338 0.668888 0.378285
C177  C     C_R   0.799414 0.157652 0.159535 0.375505
C178  C     C_R   0.211932 0.834035 0.850765 0.372276
C179  C     C_R   0.729075 0.673950 0.149106 0.407661
C180  C     C_R   0.270003 0.323862 0.851393 0.405261
C181  C     C_R   0.224406 0.837050 0.148105 0.374838
C182  C     C_R   0.843451 0.106532 0.809474 0.379104
C183  C     C_R   0.275302 0.330606 0.150328 0.406639
C184  C     C_R   0.726913 0.673926 0.850854 0.412727
C185  C     C_R   0.672406 0.727535 0.850585 0.406857
C186  C     C_R   0.329367 0.276518 0.150207 0.412070
C187  C     C_R   0.873935 0.169181 0.825216 0.366656
C188  C     C_R   0.165036 0.791301 0.149503 0.370115
C189  C     C_R   0.324612 0.270360 0.851155 0.408060
C190  C     C_R   0.675306 0.728308 0.148952 0.404852
C191  C     C_R   0.165134 0.775451 0.852032 0.376746
C192  C     C_R   0.868373 0.179945 0.170943 0.375929
C193  C     C_R   0.498044 0.999205 0.520445 -0.007318
C194  C     C_R   0.499555 0.997849 0.479579 -0.010017
C195  C     C_R   0.006504 0.492667 0.520470 -0.012456
C196  C     C_R   0.007667 0.491409 0.479575 -0.010299
C197  C     C_R   0.009230 0.491683 0.020444 -0.010545
C198  C     C_R   0.008236 0.492855 0.979547 -0.013757
C199  C     C_R   0.508211 0.990759 0.020446 -0.014052
C200  C     C_R   0.509319 0.989635 0.979543 -0.009778
H1    H     H_    0.185301 0.651956 0.674879 0.198352
H2    H     H_    0.804147 0.377563 0.327159 0.218658
H3    H     H_    0.311919 0.120313 0.681010 0.180379
H4    H     H_    0.688964 0.880649 0.318627 0.178247
H5    H     H_    0.730527 0.438858 0.734260 0.203380
H6    H     H_    0.266710 0.564104 0.281138 0.215166
H7    H     H_    0.689537 0.881175 0.681420 0.177820
H8    H     H_    0.308591 0.116972 0.317932 0.177858
H9    H     H_    0.116723 0.307887 0.317915 0.175838
H10   H     H_    0.880883 0.689826 0.681421 0.177622
H11   H     H_    0.357596 0.801780 0.324101 0.205600
H12   H     H_    0.617557 0.221015 0.678244 0.211816
H13   H     H_    0.880846 0.689850 0.318483 0.180170
H14   H     H_    0.120268 0.311299 0.681177 0.179792
H15   H     H_    0.637844 0.175106 0.328399 0.206243
H16   H     H_    0.428670 0.735584 0.711249 0.221856
H17   H     H_    0.688294 0.150332 0.175008 0.199733
H18   H     H_    0.307741 0.874517 0.827639 0.216044
H19   H     H_    0.811210 0.619202 0.181471 0.180544
H20   H     H_    0.187390 0.378638 0.819324 0.178428
H21   H     H_    0.326097 0.861485 0.171429 0.205747
H22   H     H_    0.769366 0.063460 0.768467 0.206640
H23   H     H_    0.191160 0.383334 0.182282 0.176363
H24   H     H_    0.810643 0.619933 0.819029 0.176410
H25   H     H_    0.617972 0.809940 0.818145 0.176105
H26   H     H_    0.382626 0.192027 0.181907 0.176656
H27   H     H_    0.877974 0.284260 0.823824 0.209918
H28   H     H_    0.122541 0.696192 0.172679 0.218563
H29   H     H_    0.380220 0.188871 0.818583 0.180182
H30   H     H_    0.620495 0.811149 0.181040 0.178222
H31   H     H_    0.138497 0.674399 0.828351 0.206402
H32   H     H_    0.930407 0.234184 0.213751 0.218472
H33   H     H_    0.427264 0.911381 0.599726 0.163279
H34   H     H_    0.576406 0.085134 0.401745 0.171123
H35   H     H_    0.926688 0.412533 0.599819 0.155364
H36   H     H_    0.077442 0.583023 0.401330 0.158977
H37   H     H_    0.570717 0.089395 0.598183 0.158134
H38   H     H_    0.425046 0.913687 0.400417 0.163093
H39   H     H_    0.078882 0.582618 0.598397 0.164692
H40   H     H_    0.929508 0.408510 0.400892 0.151239
H41   H     H_    0.915290 0.424666 0.098569 0.157803
H42   H     H_    0.090697 0.570584 0.900238 0.154024
H43   H     H_    0.429107 0.909551 0.099736 0.155167
H44   H     H_    0.575773 0.084075 0.901450 0.157607
H45   H     H_    0.093658 0.567707 0.099238 0.149104
H46   H     H_    0.916401 0.423398 0.901551 0.153713
H47   H     H_    0.577512 0.083022 0.098408 0.163243
H48   H     H_    0.432593 0.905491 0.900826 0.148873
O1    O     O_3   1.000000 0.500000 0.750000 -0.505562
O2    O     O_3   0.000000 0.500000 0.250000 -0.501916
O3    O     O_3   0.500000 1.000000 0.750000 -0.501460
O4    O     O_3   0.500000 1.000000 0.250000 -0.506039
O5    O     O_R   0.060740 0.500000 0.662560 -0.626781
O6    O     O_R   0.939260 0.500000 0.337440 -0.633572
O7    O     O_R   0.500000 0.060740 0.662560 -0.642560
O8    O     O_R   0.500000 0.939260 0.337440 -0.633909
O9    O     O_R   0.939260 0.500000 0.662560 -0.627444
O10   O     O_R   0.060740 0.500000 0.337440 -0.631382
O11   O     O_R   0.500000 0.939260 0.662560 -0.629739
O12   O     O_R   0.500000 0.060740 0.337440 -0.629058
O13   O     O_R   0.560740 0.000000 0.162560 -0.628545
O14   O     O_R   0.439260 0.000000 0.837440 -0.631362
O15   O     O_R   0.000000 0.560740 0.162560 -0.632822
O16   O     O_R   0.000000 0.439260 0.837440 -0.635802
O17   O     O_R   0.439260 0.000000 0.162560 -0.627068
O18   O     O_R   0.560740 0.000000 0.837440 -0.633152
O19   O     O_R   0.000000 0.439260 0.162560 -0.631567
O20   O     O_R   0.000000 0.560740 0.837440 -0.626521
O21   O     O_R   0.853850 0.585450 0.727070 -0.629801
O22   O     O_R   0.146150 0.414550 0.272930 -0.631545
O23   O     O_R   0.414550 0.853850 0.727070 -0.650031
O24   O     O_R   0.585450 0.146150 0.272930 -0.641016
O25   O     O_R   0.146150 0.414550 0.727070 -0.623484
O26   O     O_R   0.853850 0.585450 0.272930 -0.621271
O27   O     O_R   0.585450 0.146150 0.727070 -0.645249
O28   O     O_R   0.414550 0.853850 0.272930 -0.641880
O29   O     O_R   0.853850 0.414550 0.272930 -0.644368
O30   O     O_R   0.146150 0.585450 0.727070 -0.637322
O31   O     O_R   0.414550 0.146150 0.272930 -0.621349
O32   O     O_R   0.585450 0.853850 0.727070 -0.631453
O33   O     O_R   0.146150 0.585450 0.272930 -0.645506
O34   O     O_R   0.853850 0.414550 0.727070 -0.637502
O35   O     O_R   0.585450 0.853850 0.272930 -0.625025
O36   O     O_R   0.414550 0.146150 0.727070 -0.623854
O37   O     O_R   0.353850 0.085450 0.227070 -0.620518
O38   O     O_R   0.646150 0.914550 0.772930 -0.628942
O39   O     O_R   0.914550 0.353850 0.227070 -0.647797
O40   O     O_R   0.085450 0.646150 0.772930 -0.639613
O41   O     O_R   0.646150 0.914550 0.227070 -0.624154
O42   O     O_R   0.353850 0.085450 0.772930 -0.619734
O43   O     O_R   0.085450 0.646150 0.227070 -0.644774
O44   O     O_R   0.914550 0.353850 0.772930 -0.643378
O45   O     O_R   0.353850 0.914550 0.772930 -0.642065
O46   O     O_R   0.646150 0.085450 0.227070 -0.637933
O47   O     O_R   0.914550 0.646150 0.772930 -0.619278
O48   O     O_R   0.085450 0.353850 0.227070 -0.632447
O49   O     O_R   0.646150 0.085450 0.772930 -0.638679
O50   O     O_R   0.353850 0.914550 0.227070 -0.638587
O51   O     O_R   0.085450 0.353850 0.772930 -0.621951
O52   O     O_R   0.914550 0.646150 0.227070 -0.622041
Zn1   Zn    Zn3+2 0.000000 0.586740 0.782740 1.001533
Zn2   Zn    Zn3+2 1.000000 0.413260 0.217260 0.986575
Zn3   Zn    Zn3+2 0.413260 1.000000 0.782740 1.004433
Zn4   Zn    Zn3+2 0.586740 0.000000 0.217260 0.999177
Zn5   Zn    Zn3+2 0.000000 0.413260 0.782740 0.993994
Zn6   Zn    Zn3+2 0.000000 0.586740 0.217260 1.001791
Zn7   Zn    Zn3+2 0.586740 1.000000 0.782740 0.990471
Zn8   Zn    Zn3+2 0.413260 0.000000 0.217260 1.002953
Zn9   Zn    Zn3+2 0.500000 0.086740 0.282740 1.002934
Zn10  Zn    Zn3+2 0.500000 0.913260 0.717260 0.989753
Zn11  Zn    Zn3+2 0.913260 0.500000 0.282740 1.001576
Zn12  Zn    Zn3+2 0.086740 0.500000 0.717260 1.004791
Zn13  Zn    Zn3+2 0.500000 0.913260 0.282740 0.996076
Zn14  Zn    Zn3+2 0.500000 0.086740 0.717260 0.995128
Zn15  Zn    Zn3+2 0.086740 0.500000 0.282740 0.986840
Zn16  Zn    Zn3+2 0.913260 0.500000 0.717260 0.994957
Cl1   Cl    Cl    0.100770 0.766575 0.889722 -0.514831
Cl2   Cl    Cl    0.945840 0.160304 0.142528 -0.500501
Cl3   Cl    Cl    0.379693 0.254627 0.892332 -0.501945
Cl4   Cl    Cl    0.621209 0.744208 0.107473 -0.544400
Cl5   Cl    Cl    0.936178 0.164174 0.864072 -0.479597
Cl6   Cl    Cl    0.094018 0.799691 0.115420 -0.492244
Cl7   Cl    Cl    0.616070 0.742433 0.891481 -0.536827
Cl8   Cl    Cl    0.385986 0.263245 0.109366 -0.544058
Cl9   Cl    Cl    0.261449 0.388053 0.109736 -0.536744
Cl10  Cl    Cl    0.741979 0.619155 0.892257 -0.547280
Cl11  Cl    Cl    0.234335 0.901381 0.110395 -0.519389
Cl12  Cl    Cl    0.868802 0.019135 0.826145 -0.465610
Cl13  Cl    Cl    0.744724 0.618426 0.107994 -0.502704
Cl14  Cl    Cl    0.253305 0.377511 0.893048 -0.543787
Cl15  Cl    Cl    0.785322 0.114256 0.114449 -0.553533
Cl16  Cl    Cl    0.204644 0.905482 0.884820 -0.485452
Cl17  Cl    Cl    0.597007 0.268889 0.388551 -0.539345
Cl18  Cl    Cl    0.441261 0.663838 0.639314 -0.468245
Cl19  Cl    Cl    0.882190 0.758074 0.391627 -0.500553
Cl20  Cl    Cl    0.120524 0.244676 0.607582 -0.534040
Cl21  Cl    Cl    0.398247 0.697974 0.380468 -0.560605
Cl22  Cl    Cl    0.554132 0.343010 0.642349 -0.511984
Cl23  Cl    Cl    0.112414 0.236765 0.390362 -0.529546
Cl24  Cl    Cl    0.882048 0.758129 0.608124 -0.544849
Cl25  Cl    Cl    0.757694 0.883051 0.608240 -0.506199
Cl26  Cl    Cl    0.237505 0.112132 0.390348 -0.507143
Cl27  Cl    Cl    0.625505 0.486009 0.680140 -0.447894
Cl28  Cl    Cl    0.343772 0.541507 0.350820 -0.492367
Cl29  Cl    Cl    0.245372 0.119996 0.607530 -0.506304
Cl30  Cl    Cl    0.756978 0.882339 0.391761 -0.539726
Cl31  Cl    Cl    0.280236 0.615668 0.613496 -0.563709
Cl32  Cl    Cl    0.699059 0.409135 0.383047 -0.503722
C201  C     C_3   0.605954 0.174300 0.539319 -0.480404
C202  C     C_3   0.541151 0.221393 0.552455 -0.663141
H49   H     H_    0.503852 0.231429 0.527498 0.276187
H50   H     H_    0.510413 0.195654 0.576544 0.264632
H51   H     H_    0.560893 0.274776 0.562977 0.287685
H52   H     H_    0.642789 0.162409 0.564204 0.213469
H53   H     H_    0.636197 0.209970 0.519190 0.228521
C203  C     C_3   0.369476 0.839302 0.457156 -0.402510
C204  C     C_3   0.297122 0.869147 0.441678 -0.786682
H54   H     H_    0.261528 0.886827 0.466176 0.267110
H55   H     H_    0.305418 0.916364 0.421981 0.274963
H56   H     H_    0.269092 0.825835 0.425095 0.261898
H57   H     H_    0.402848 0.816843 0.432991 0.256813
H58   H     H_    0.359053 0.790249 0.475012 0.232168
C205  C     C_3   0.112824 0.668748 0.539941 -0.475384
C206  C     C_3   0.048149 0.715084 0.553966 -0.701964
H59   H     H_    0.011674 0.728150 0.529043 0.290429
H60   H     H_    0.016442 0.687125 0.576888 0.276313
H61   H     H_    0.068025 0.766974 0.566445 0.261267
H62   H     H_    0.149976 0.655906 0.564517 0.252343
H63   H     H_    0.142747 0.705721 0.520474 0.219220
C207  C     C_3   0.901092 0.317141 0.457666 -0.439646
C208  C     C_3   0.823256 0.329228 0.443630 -0.770092
H64   H     H_    0.784889 0.334082 0.468506 0.270384
H65   H     H_    0.819480 0.379978 0.426272 0.296427
H66   H     H_    0.806594 0.282715 0.425115 0.254752
H67   H     H_    0.936745 0.303931 0.432393 0.235922
H68   H     H_    0.904395 0.266825 0.475541 0.231429
C209  C     C_3   0.354742 0.852703 0.543402 -0.478973
C210  C     C_3   0.390022 0.781843 0.557921 -0.697366
H69   H     H_    0.409929 0.748397 0.533049 0.272212
H70   H     H_    0.436570 0.792939 0.577440 0.279333
H71   H     H_    0.349362 0.749941 0.574440 0.283979
H72   H     H_    0.330424 0.883313 0.568207 0.222609
H73   H     H_    0.306378 0.839588 0.525730 0.225184
C211  C     C_3   0.663960 0.119253 0.460315 -0.475529
C212  C     C_3   0.712857 0.056860 0.445704 -0.717502
H74   H     H_    0.725519 0.018624 0.470012 0.291691
H75   H     H_    0.687234 0.026284 0.421625 0.274851
H76   H     H_    0.764621 0.079316 0.434485 0.256924
H77   H     H_    0.650356 0.156762 0.436029 0.256059
H78   H     H_    0.698833 0.149711 0.480631 0.218864
C213  C     C_3   0.879719 0.331131 0.543712 -0.463267
C214  C     C_3   0.927698 0.271733 0.562031 -0.734810
H79   H     H_    0.958593 0.241960 0.539049 0.281151
H80   H     H_    0.966796 0.295139 0.582996 0.284099
H81   H     H_    0.893163 0.232304 0.577913 0.250805
H82   H     H_    0.845708 0.358408 0.566258 0.217928
H83   H     H_    0.838734 0.304374 0.525328 0.222525
C215  C     C_3   0.165138 0.621301 0.458300 -0.479009
C216  C     C_3   0.216560 0.562688 0.441728 -0.671565
H84   H     H_    0.234082 0.524754 0.465308 0.277164
H85   H     H_    0.191065 0.530896 0.418068 0.264880
H86   H     H_    0.265546 0.589017 0.429403 0.289649
H87   H     H_    0.146905 0.659216 0.434911 0.218421
H88   H     H_    0.200193 0.652968 0.477884 0.226551
C217  C     C_3   0.186684 0.591937 0.042673 -0.441948
C218  C     C_3   0.178081 0.670679 0.056425 -0.762997
H89   H     H_    0.128960 0.676459 0.074829 0.294163
H90   H     H_    0.226208 0.686282 0.073880 0.250391
H91   H     H_    0.172710 0.708772 0.031413 0.279254
H92   H     H_    0.198040 0.556009 0.068107 0.238409
H93   H     H_    0.236831 0.586075 0.024932 0.231354
C219  C     C_3   0.829987 0.390687 0.959780 -0.491164
C220  C     C_3   0.785213 0.456438 0.945666 -0.689098
H94   H     H_    0.772554 0.493226 0.970582 0.290977
H95   H     H_    0.813999 0.487747 0.922891 0.277098
H96   H     H_    0.733283 0.437525 0.932985 0.257484
H97   H     H_    0.842284 0.352981 0.935257 0.222040
H98   H     H_    0.792295 0.361551 0.979161 0.218753
C221  C     C_3   0.612738 0.168152 0.039970 -0.476024
C222  C     C_3   0.547872 0.214649 0.053581 -0.700792
H99   H     H_    0.512332 0.228306 0.028358 0.288814
H100  H     H_    0.515175 0.186518 0.076029 0.277956
H101  H     H_    0.567621 0.266222 0.066488 0.261659
H102  H     H_    0.649496 0.155343 0.064740 0.250135
H103  H     H_    0.643128 0.204977 0.020643 0.217297
C223  C     C_3   0.409702 0.811578 0.957483 -0.440752
C224  C     C_3   0.331213 0.819444 0.943719 -0.766532
H104  H     H_    0.293019 0.823917 0.968691 0.278519
H105  H     H_    0.325052 0.869019 0.925631 0.295441
H106  H     H_    0.316349 0.771312 0.925950 0.249807
H107  H     H_    0.445610 0.800488 0.932029 0.238294
H108  H     H_    0.415985 0.761411 0.975291 0.231610
C225  C     C_3   0.875510 0.337463 0.041479 -0.482611
C226  C     C_3   0.932855 0.284521 0.057791 -0.666541
H109  H     H_    0.971369 0.267766 0.034348 0.274473
H110  H     H_    0.963802 0.308621 0.082185 0.266627
H111  H     H_    0.905649 0.235030 0.068990 0.296593
H112  H     H_    0.838212 0.356422 0.064966 0.222251
H113  H     H_    0.843103 0.303132 0.021880 0.222657
C227  C     C_3   0.174648 0.613115 0.956623 -0.449694
C228  C     C_3   0.231665 0.562462 0.938311 -0.755796
H114  H     H_    0.206625 0.525499 0.916764 0.286811
H115  H     H_    0.273222 0.595388 0.923042 0.251159
H116  H     H_    0.258967 0.529149 0.961191 0.286830
H117  H     H_    0.149238 0.648028 0.934032 0.252618
H118  H     H_    0.203014 0.653128 0.974982 0.228126
C229  C     C_3   0.387712 0.824373 0.043510 -0.451060
C230  C     C_3   0.438166 0.767639 0.062215 -0.753794
H119  H     H_    0.471815 0.740085 0.039551 0.287272
H120  H     H_    0.474573 0.793200 0.083820 0.286296
H121  H     H_    0.405310 0.725998 0.077500 0.251574
H122  H     H_    0.352440 0.850057 0.065873 0.252333
H123  H     H_    0.348318 0.795386 0.025104 0.228000
C231  C     C_3   0.664876 0.121214 0.958171 -0.472764
C232  C     C_3   0.716062 0.062800 0.941156 -0.695936
H124  H     H_    0.734163 0.024746 0.964558 0.281620
H125  H     H_    0.690088 0.031093 0.917617 0.262839
H126  H     H_    0.764728 0.089239 0.928522 0.271276
H127  H     H_    0.646323 0.159429 0.934995 0.215992
H128  H     H_    0.700173 0.152570 0.977772 0.224045

loop_
_geom_bond_atom_site_label_1
_geom_bond_atom_site_label_2
_ccdc_geom_bond_type
C224  H104  S    
C76   C104  A    
C204  H54   S    
C45   C148  A    
C105  O5    A    
C79   C87   A    
C127  O41   A    
C114  O48   A    
C18   C50   A    
C66   H34   S    
C79   C99   A    
C222  H99   S    
C121  O29   A    
C31   C130  A    
C69   C89   A    
C14   C102  A    
C29   C132  A    
C30   C131  A    
C2    C90   A    
C16   C104  A    
O1    Zn1   S    
C6    C94   A    
C105  O9    A    
C139  C171  A    
C143  C175  A    
C112  O20   A    
C172  Cl22  S    
C130  H2    S    
C223  H107  S    
C156  H28   S    
C48   C50   A    
C47   C146  A    
C6    C211  S    
C199  C200  A    
C220  H95   S    
C75   C103  A    
C143  H15   S    
C36   C62   A    
C180  Cl14  S    
C40   C58   A    
C39   C154  A    
C28   C133  A    
C215  H88   S    
C117  O25   A    
C3    C8    A    
C168  Cl26  S    
C228  H116  S    
C8    C215  S    
C22   C139  A    
C83   C105  S    
C159  H31   S    
C217  H92   S    
O23   Zn10  S    
C31   C63   A    
C57   C123  S    
C91   C195  A    
C89   C193  A    
C73   H41   S    
C164  C173  A    
C61   C127  S    
C72   C84   A    
C112  O16   A    
C4    C207  S    
C168  C169  A    
C49   C115  S    
C21   C28   A    
C204  H56   S    
C22   C27   A    
C218  H90   S    
C176  Cl18  S    
C146  H18   S    
O29   Zn11  S    
C70   C82   A    
C153  H25   S    
C216  H85   S    
C109  O13   A    
C94   C194  A    
C27   C134  A    
C222  H101  S    
O20   Zn1   S    
C92   C196  A    
O30   Zn12  S    
C23   C55   A    
C178  Cl16  S    
C24   C56   A    
C55   C113  S    
C117  O51   A    
C118  O52   A    
C230  H119  S    
C37   C44   A    
C111  O19   A    
C209  H72   S    
C80   C88   A    
C155  C187  A    
C217  C218  S    
C183  Cl9   S    
C123  O31   A    
C202  H49   S    
C221  H103  S    
C228  H115  S    
C167  Cl25  S    
C2    C203  S    
C195  C196  A    
C74   H42   S    
C147  C179  A    
C38   C43   A    
O3    Zn7   S    
C193  C194  A    
C10   C219  S    
C231  H127  S    
C232  H125  S    
C17   C32   A    
C227  H117  S    
C18   C31   A    
C3    C205  S    
C210  H69   S    
C19   C30   A    
O16   Zn5   S    
O44   Zn5   S    
C212  H75   S    
O37   Zn8   S    
O38   Zn7   S    
C67   C83   A    
C201  C202  S    
O40   Zn1   S    
C221  C222  S    
C226  H110  S    
C71   C91   A    
C207  C208  S    
C124  O32   A    
C157  H29   S    
C22   C54   A    
O21   Zn16  S    
C223  H108  S    
C174  Cl20  S    
O22   Zn15  S    
C154  C186  A    
C155  H27   S    
C203  H57   S    
C17   C144  A    
C18   C143  A    
C113  O21   A    
C180  C189  A    
C158  C190  A    
C115  O23   A    
C225  H112  S    
C184  C185  A    
C146  C178  A    
C11   C99   A    
O24   Zn9   S    
C205  H63   S    
O3    Zn3   S    
C160  H32   S    
C77   C97   A    
C231  C232  S    
O4    Zn4   S    
C82   C108  S    
C95   C195  A    
C33   C160  A    
C129  H1    S    
C34   C159  A    
C130  C162  A    
C65   C93   A    
C219  H98   S    
C67   C95   A    
C104  C200  A    
C37   C156  A    
C25   C57   A    
C38   C155  A    
C4    C7    A    
C13   C225  S    
C122  O30   A    
C32   C129  A    
C120  O28   A    
C71   C83   A    
C28   C60   A    
C29   C61   A    
C129  C161  A    
C230  H121  S    
C97   C197  A    
C32   C64   A    
C109  O17   A    
C183  C186  A    
C17   C49   A    
C144  H16   S    
C161  C176  A    
O51   Zn5   S    
O1    Zn5   S    
C162  C175  A    
O2    Zn2   S    
C138  H10   S    
C79   H47   S    
C177  Cl15  S    
C84   C106  S    
C96   C196  A    
C33   C63   A    
C208  H66   S    
C73   C85   A    
C48   C145  A    
C144  C176  A    
O43   Zn6   S    
C34   C64   A    
C107  O7    A    
C35   C61   A    
C37   C59   A    
C42   C151  A    
C9    C217  S    
C125  O43   A    
C43   C150  A    
C36   C157  A    
O1    Zn12  S    
C38   C60   A    
C100  C200  A    
C75   C87   A    
O2    Zn11  S    
C125  O33   A    
C126  O44   A    
C40   C153  A    
C2    C5    A    
C128  O36   A    
C164  Cl30  S    
C5    C209  S    
C118  O26   A    
O7    Zn14  S    
C135  H7    S    
O41   Zn4   S    
C201  H53   S    
C19   C142  A    
C20   C141  A    
C229  H123  S    
C151  C183  A    
O42   Zn3   S    
C24   C137  A    
C59   C125  S    
C206  H61   S    
O47   Zn1   S    
C15   C103  A    
C222  H100  S    
O28   Zn13  S    
C173  Cl19  S    
C211  H77   S    
C73   C101  A    
C51   C117  S    
C151  H23   S    
C197  C198  A    
C171  Cl21  S    
C142  C174  A    
C44   C54   A    
C232  H124  S    
C204  H55   S    
O50   Zn8   S    
C135  C167  A    
C12   C223  S    
C70   H38   S    
C201  H52   S    
O49   Zn7   S    
C124  O38   A    
C113  O47   A    
C81   C107  S    
C7    C213  S    
C220  H94   S    
C115  O45   A    
C106  O6    A    
C23   C138  A    
C226  H109  S    
C150  C182  A    
C187  Cl5   S    
C116  O46   A    
C68   C96   A    
C154  H26   S    
C65   H33   S    
C72   C92   A    
O11   Zn10  S    
C134  H6    S    
C223  C224  S    
O32   Zn10  S    
C208  H64   S    
C16   C231  S    
C227  C228  S    
C3    C91   A    
C205  H62   S    
C23   C26   A    
C60   C126  S    
C229  H122  S    
C41   C55   A    
C42   C56   A    
C43   C53   A    
C191  Cl1   S    
O39   Zn2   S    
C14   C227  S    
C205  C206  S    
C80   H48   S    
O45   Zn3   S    
C131  H3    S    
O46   Zn4   S    
C207  H67   S    
C74   C102  A    
C88   C110  S    
O3    Zn14  S    
C161  Cl31  S    
O4    Zn9   S    
C148  C180  A    
C177  C192  A    
C108  O8    A    
O5    Zn12  S    
C149  C181  A    
C150  H22   S    
O6    Zn11  S    
O17   Zn8   S    
C119  O49   A    
O18   Zn7   S    
C114  O22   A    
C181  C188  A    
O31   Zn9   S    
C39   C42   A    
C156  C188  A    
O27   Zn14  S    
O13   Zn4   S    
C132  H4    S    
O14   Zn3   S    
C229  C230  S    
C68   C84   A    
C159  C191  A    
C160  C192  A    
C1    C201  S    
O35   Zn13  S    
O9    Zn16  S    
C136  H8    S    
O10   Zn15  S    
C202  H51   S    
C1    C6    A    
C137  H9    S    
C71   H39   S    
C111  O15   A    
O48   Zn2   S    
C9    C14   A    
C132  C164  A    
C133  C165  A    
C224  H105  S    
C11   C16   A    
C65   C81   A    
C46   C147  A    
C90   C194  A    
C12   C15   A    
C131  C163  A    
C202  H50   S    
C148  H20   S    
C142  H14   S    
C214  H80   S    
O3    Zn10  S    
C30   C62   A    
C231  H128  S    
O4    Zn13  S    
C227  H118  S    
C210  H70   S    
C110  O18   A    
C170  Cl24  S    
C140  H12   S    
C212  H74   S    
O52   Zn6   S    
O2    Zn6   S    
C219  C220  S    
C9    C97   A    
C215  H87   S    
C93   C193  A    
O15   Zn6   S    
C214  H79   S    
C85   C111  S    
C87   C109  S    
O36   Zn14  S    
C203  H58   S    
C44   C149  A    
C210  H71   S    
C217  H93   S    
C35   C158  A    
O1    Zn16  S    
O2    Zn15  S    
C126  O34   A    
C186  Cl8   S    
C206  H60   S    
C101  C197  A    
C12   C100  A    
C69   C81   A    
C119  O27   A    
O8    Zn13  S    
C213  H83   S    
C145  H17   S    
C99   C199  A    
C33   C48   A    
C218  H89   S    
O19   Zn2   S    
C34   C47   A    
C21   C140  A    
C116  O24   A    
C35   C46   A    
C165  Cl27  S    
C216  H84   S    
C230  H120  S    
C4    C92   A    
C52   C118  S    
C216  H86   S    
C21   C53   A    
C54   C120  S    
O12   Zn9   S    
C138  C170  A    
C8    C96   A    
C211  C212  S    
C158  H30   S    
C11   C221  S    
C213  C214  S    
C47   C49   A    
C41   C152  A    
C206  H59   S    
C67   H35   S    
C153  C185  A    
C107  O11   A    
C76   H44   S    
C209  H73   S    
C102  C198  A    
C162  Cl32  S    
C66   C82   A    
C45   C51   A    
C133  H5    S    
C39   C57   A    
C46   C52   A    
C182  Cl12  S    
C121  O39   A    
C127  O35   A    
C10   C98   A    
C25   C136  A    
C15   C229  S    
C122  O40   A    
C26   C135  A    
C68   H36   S    
C78   H46   S    
C208  H65   S    
C218  H91   S    
C78   C98   A    
C232  H126  S    
C192  Cl2   S    
C72   H40   S    
C152  C184  A    
C123  O37   A    
C76   C88   A    
C50   C116  S    
C66   C94   A    
C212  H76   S    
C78   C86   A    
C165  C172  A    
C166  C171  A    
C140  C172  A    
C80   C100  A    
C141  C173  A    
C70   C90   A    
C149  H21   S    
C214  H81   S    
C63   C121  S    
C134  C166  A    
C167  C170  A    
C20   C29   A    
C213  H82   S    
C224  H106  S    
O4    Zn8   S    
C98   C198  A    
C169  Cl23  S    
C75   H43   S    
C24   C25   A    
C141  H13   S    
C189  Cl3   S    
C190  Cl4   S    
C136  C168  A    
C139  H11   S    
C225  H113  S    
C188  Cl6   S    
C86   C112  S    
C211  H78   S    
C26   C58   A    
C36   C45   A    
C103  C199  A    
C74   C86   A    
O25   Zn12  S    
C120  O50   A    
C209  C210  S    
O26   Zn11  S    
C185  Cl7   S    
C40   C41   A    
C219  H97   S    
C108  O12   A    
C13   C101  A    
C1    C89   A    
C137  C169  A    
C166  Cl28  S    
C10   C13   A    
C5    C93   A    
C53   C119  S    
C220  H96   S    
C7    C95   A    
C58   C124  S    
C77   H45   S    
C152  H24   S    
C221  H102  S    
C20   C52   A    
C27   C59   A    
C62   C128  S    
C178  C191  A    
C228  H114  S    
C179  C190  A    
O34   Zn16  S    
C64   C122  S    
C163  Cl29  S    
C128  O42   A    
C203  C204  S    
C184  Cl10  S    
C182  C187  A    
C157  C189  A    
C110  O14   A    
C226  H111  S    
C147  H19   S    
C175  Cl17  S    
C77   C85   A    
C181  Cl11  S    
C19   C51   A    
C225  C226  S    
C145  C177  A    
C106  O10   A    
C56   C114  S    
C215  C216  S    
O33   Zn15  S    
C163  C174  A    
C69   H37   S    
C207  H68   S    
C179  Cl13  S    
