data_mof_unit_1680.cif
_audit_creation_date              2012-12-10T20:12:20-0500
_audit_creation_method            fapswitch 2.2
_symmetry_space_group_name_H-M    P1
_symmetry_Int_Tables_number       1
_space_group_crystal_system       triclinic
_cell_length_a                    15.9374
_cell_length_b                    15.928727
_cell_length_c                    59.847822
_cell_angle_alpha                 89.982031
_cell_angle_beta                  89.985891
_cell_angle_gamma                 90.01337
_cell_volume                      15193.1157131

loop_
_atom_site_label
_atom_site_type_symbol
_atom_type_description
_atom_site_fract_x
_atom_site_fract_y
_atom_site_fract_z
_atom_type_partial_charge
C1    C     C_R   0.499898 0.999976 0.810312 1.094284
C2    C     C_R   0.499909 0.000017 0.189683 1.095072
C3    C     C_R   0.000010 0.499818 0.810317 1.096598
C4    C     C_R   0.000025 0.500097 0.189685 1.093028
C5    C     C_R   0.999891 0.499973 0.310311 1.094120
C6    C     C_R   0.999905 0.500016 0.689683 1.094887
C7    C     C_R   0.499995 0.999901 0.310340 1.088750
C8    C     C_R   0.500023 0.000102 0.689702 1.093559
C9    C     C_R   0.471598 0.150062 0.547102 -0.099888
C10   C     C_R   0.481323 0.850382 0.453039 -0.096700
C11   C     C_R   0.851745 0.461835 0.547399 -0.099046
C12   C     C_R   0.147538 0.463224 0.452640 -0.097791
C13   C     C_R   0.540331 0.853574 0.547452 -0.097776
C14   C     C_R   0.530325 0.150762 0.452642 -0.097561
C15   C     C_R   0.148722 0.527220 0.546914 -0.098282
C16   C     C_R   0.849799 0.525151 0.453045 -0.099465
C17   C     C_R   0.974494 0.650403 0.046968 -0.099813
C18   C     C_R   0.974117 0.351242 0.953068 -0.098770
C19   C     C_R   0.351703 0.961985 0.047400 -0.099146
C20   C     C_R   0.647463 0.962997 0.952640 -0.098305
C21   C     C_R   0.037644 0.352750 0.047341 -0.097591
C22   C     C_R   0.036821 0.649032 0.952587 -0.099178
C23   C     C_R   0.648747 0.027086 0.046911 -0.098057
C24   C     C_R   0.349844 0.025473 0.953051 -0.099676
C25   C     C_R   0.500210 0.000996 0.665074 -0.377391
C26   C     C_R   0.500149 0.999578 0.335014 -0.379272
C27   C     C_R   0.000512 0.499975 0.665029 -0.377118
C28   C     C_R   0.999065 0.499778 0.334967 -0.377651
C29   C     C_R   0.000221 0.500975 0.165024 -0.377158
C30   C     C_R   0.000153 0.499318 0.834954 -0.381307
C31   C     C_R   0.500513 0.999984 0.165029 -0.377273
C32   C     C_R   0.499075 0.999802 0.834971 -0.377488
C33   C     C_R   0.011574 0.577796 0.988127 0.041493
C34   C     C_R   0.011857 0.423993 0.011852 0.041343
C35   C     C_R   0.422149 0.998822 0.988343 0.041705
C36   C     C_R   0.576643 0.999524 0.011657 0.041489
C37   C     C_R   0.001037 0.423591 0.988333 0.041687
C38   C     C_R   0.001108 0.578177 0.011661 0.041766
C39   C     C_R   0.576259 0.988668 0.988136 0.041313
C40   C     C_R   0.422617 0.988136 0.011873 0.041328
C41   C     C_R   0.509026 0.078323 0.488193 0.041797
C42   C     C_R   0.513984 0.924451 0.511924 0.041563
C43   C     C_R   0.922156 0.498705 0.488341 0.041697
C44   C     C_R   0.076648 0.499626 0.511657 0.041487
C45   C     C_R   0.503854 0.923789 0.488370 0.041794
C46   C     C_R   0.498990 0.078344 0.511750 0.041968
C47   C     C_R   0.076283 0.488778 0.488136 0.041333
C48   C     C_R   0.922636 0.488046 0.511872 0.041273
C49   C     C_R   0.006078 0.500505 0.976497 0.092931
C50   C     C_R   0.006431 0.501260 0.023492 0.093895
C51   C     C_R   0.499011 0.993828 0.976514 0.094106
C52   C     C_R   0.499839 0.993983 0.023495 0.093379
C53   C     C_R   0.506294 0.000889 0.476545 0.092886
C54   C     C_R   0.506387 0.001548 0.523561 0.093121
C55   C     C_R   0.999026 0.493810 0.476513 0.093994
C56   C     C_R   0.999850 0.493985 0.523496 0.093491
C57   C     C_R   0.028169 0.651569 0.975779 -0.200232
C58   C     C_R   0.028731 0.350231 0.024165 -0.199685
C59   C     C_R   0.347988 0.015623 0.976220 -0.200293
C60   C     C_R   0.650680 0.017051 0.023758 -0.199463
C61   C     C_R   0.984050 0.349400 0.976222 -0.199385
C62   C     C_R   0.984163 0.652317 0.023799 -0.200089
C63   C     C_R   0.650004 0.972014 0.975820 -0.199693
C64   C     C_R   0.349017 0.970963 0.024216 -0.200206
C65   C     C_R   0.522500 0.152753 0.475845 -0.200257
C66   C     C_R   0.532242 0.851040 0.524261 -0.199290
C67   C     C_R   0.847969 0.515369 0.476216 -0.200162
C68   C     C_R   0.150663 0.517233 0.523760 -0.199479
C69   C     C_R   0.490127 0.848997 0.476217 -0.199400
C70   C     C_R   0.480560 0.152086 0.523923 -0.199790
C71   C     C_R   0.150056 0.472247 0.475820 -0.199750
C72   C     C_R   0.849054 0.470796 0.524215 -0.200252
C73   C     C_R   0.660337 0.839649 0.750002 0.869342
C74   C     C_R   0.339669 0.160348 0.249998 0.851781
C75   C     C_R   0.160328 0.660348 0.749995 0.868961
C76   C     C_R   0.839678 0.339655 0.250004 0.855335
C77   C     C_R   0.339667 0.160344 0.750002 0.869969
C78   C     C_R   0.660329 0.839660 0.249998 0.862977
C79   C     C_R   0.839662 0.339662 0.749999 0.869597
C80   C     C_R   0.160329 0.660336 0.249999 0.855395
C81   C     C_R   0.660331 0.160346 0.249995 0.868218
C82   C     C_R   0.339678 0.839655 0.750004 0.855568
C83   C     C_R   0.160338 0.339649 0.250003 0.869117
C84   C     C_R   0.839668 0.660347 0.749998 0.852434
C85   C     C_R   0.339660 0.839665 0.249998 0.868503
C86   C     C_R   0.660330 0.160336 0.749999 0.855540
C87   C     C_R   0.839666 0.660344 0.250002 0.869602
C88   C     C_R   0.160330 0.339661 0.749998 0.866436
C89   C     C_1   0.723407 0.223420 0.749998 -0.096168
C90   C     C_1   0.276573 0.776575 0.249998 -0.096536
C91   C     C_1   0.776595 0.723428 0.749998 -0.096684
C92   C     C_1   0.223420 0.276562 0.250004 -0.096722
C93   C     C_1   0.276602 0.776570 0.750005 -0.095970
C94   C     C_1   0.723413 0.223438 0.249994 -0.096066
C95   C     C_1   0.223407 0.276575 0.749998 -0.095224
C96   C     C_1   0.776582 0.723436 0.250003 -0.095792
C97   C     C_1   0.723406 0.776575 0.249999 -0.095726
C98   C     C_1   0.276583 0.223436 0.750002 -0.095537
C99   C     C_1   0.776605 0.276568 0.250004 -0.096060
C100  C     C_1   0.223410 0.723440 0.749995 -0.096146
C101  C     C_1   0.276597 0.223429 0.249999 -0.098074
C102  C     C_1   0.723418 0.776562 0.750003 -0.096649
C103  C     C_1   0.223404 0.723422 0.249998 -0.096148
C104  C     C_1   0.776577 0.276573 0.749999 -0.097620
C105  C     C_R   0.479379 0.072560 0.582384 0.662176
C106  C     C_R   0.484559 0.927992 0.417729 0.667002
C107  C     C_R   0.930274 0.470516 0.582527 0.664559
C108  C     C_R   0.069049 0.471027 0.417506 0.661864
C109  C     C_R   0.529910 0.931536 0.582592 0.662289
C110  C     C_R   0.524405 0.072415 0.417484 0.667726
C111  C     C_R   0.071114 0.521253 0.582234 0.668728
C112  C     C_R   0.927521 0.519781 0.417735 0.662061
C113  C     C_R   0.980192 0.572615 0.082272 0.661972
C114  C     C_R   0.979458 0.428905 0.917752 0.671022
C115  C     C_R   0.430257 0.970585 0.082527 0.665064
C116  C     C_R   0.568977 0.970969 0.917506 0.659818
C117  C     C_R   0.029376 0.431145 0.082493 0.662145
C118  C     C_R   0.028380 0.570510 0.917456 0.668573
C119  C     C_R   0.571113 0.021277 0.082230 0.670165
C120  C     C_R   0.427582 0.020095 0.917742 0.662194
C121  C     C_R   0.448698 0.945885 0.629636 0.327051
C122  C     C_R   0.444243 0.050862 0.370405 0.328234
C123  C     C_R   0.057610 0.446492 0.630038 0.330602
C124  C     C_R   0.942436 0.445198 0.369929 0.327543
C125  C     C_R   0.554779 0.057824 0.630140 0.327190
C126  C     C_R   0.559432 0.948670 0.370038 0.329051
C127  C     C_R   0.944452 0.550900 0.629619 0.327576
C128  C     C_R   0.054187 0.551319 0.370405 0.327537
C129  C     C_R   0.948583 0.446054 0.129564 0.327253
C130  C     C_R   0.948115 0.554903 0.870335 0.328679
C131  C     C_R   0.557673 0.946601 0.130036 0.331193
C132  C     C_R   0.442275 0.945488 0.869936 0.328693
C133  C     C_R   0.055054 0.557502 0.130073 0.327320
C134  C     C_R   0.054778 0.443499 0.870025 0.330040
C135  C     C_R   0.444404 0.050877 0.129624 0.327503
C136  C     C_R   0.554310 0.051255 0.870401 0.326089
C137  C     C_R   0.457474 0.937483 0.653070 0.250584
C138  C     C_R   0.452413 0.059591 0.346959 0.251781
C139  C     C_R   0.065235 0.457844 0.653411 0.250121
C140  C     C_R   0.934860 0.456456 0.346547 0.251212
C141  C     C_R   0.543566 0.065292 0.653513 0.250373
C142  C     C_R   0.548683 0.939508 0.346704 0.252230
C143  C     C_R   0.936438 0.541891 0.653082 0.249981
C144  C     C_R   0.062563 0.542471 0.346961 0.251769
C145  C     C_R   0.957236 0.437673 0.153016 0.250604
C146  C     C_R   0.957043 0.562888 0.846878 0.249464
C147  C     C_R   0.565288 0.957951 0.153411 0.249980
C148  C     C_R   0.434746 0.956718 0.846550 0.250480
C149  C     C_R   0.043852 0.565036 0.153458 0.250395
C150  C     C_R   0.043865 0.435518 0.846626 0.248135
C151  C     C_R   0.436392 0.041827 0.153086 0.250076
C152  C     C_R   0.562675 0.042327 0.846958 0.252118
C153  C     C_R   0.502490 0.001935 0.618016 -0.039210
C154  C     C_R   0.502541 0.999928 0.382086 -0.039462
C155  C     C_R   0.000923 0.497912 0.617948 -0.039995
C156  C     C_R   0.998266 0.497515 0.382051 -0.039270
C157  C     C_R   0.002602 0.501829 0.117943 -0.038938
C158  C     C_R   0.002070 0.499354 0.882059 -0.041032
C159  C     C_R   0.500927 0.997963 0.117947 -0.040204
C160  C     C_R   0.498245 0.997649 0.882052 -0.039052
C161  C     C_R   0.505942 0.001816 0.547237 -0.051104
C162  C     C_R   0.505783 0.000570 0.452870 -0.051791
C163  C     C_R   0.000243 0.494521 0.547142 -0.050135
C164  C     C_R   0.998668 0.494200 0.452855 -0.050942
C165  C     C_R   0.006048 0.501578 0.047142 -0.051123
C166  C     C_R   0.005405 0.500146 0.952845 -0.049620
C167  C     C_R   0.500233 0.994534 0.047141 -0.049962
C168  C     C_R   0.498655 0.994256 0.952858 -0.051018
C169  C     C_R   0.485693 0.075568 0.558967 -0.067941
C170  C     C_R   0.490683 0.925581 0.441147 -0.065780
C171  C     C_R   0.926705 0.475507 0.559099 -0.067880
C172  C     C_R   0.072467 0.476038 0.440936 -0.068679
C173  C     C_R   0.525503 0.928272 0.559151 -0.068156
C174  C     C_R   0.520181 0.075283 0.440929 -0.066551
C175  C     C_R   0.074122 0.514288 0.558838 -0.065440
C176  C     C_R   0.924565 0.512993 0.441144 -0.068410
C177  C     C_R   0.986969 0.575631 0.058868 -0.068504
C178  C     C_R   0.986344 0.426010 0.941161 -0.064158
C179  C     C_R   0.426681 0.975586 0.059098 -0.067677
C180  C     C_R   0.572414 0.975961 0.940935 -0.070141
C181  C     C_R   0.024473 0.427777 0.059063 -0.068659
C182  C     C_R   0.023622 0.573951 0.940897 -0.065085
C183  C     C_R   0.574126 0.014257 0.058834 -0.064567
C184  C     C_R   0.424596 0.013226 0.941148 -0.067783
H1    H     H_    0.455654 0.207649 0.555718 0.203815
H2    H     H_    0.469093 0.791822 0.444432 0.203675
H3    H     H_    0.794241 0.446684 0.556198 0.204186
H4    H     H_    0.205207 0.448761 0.443877 0.204461
H5    H     H_    0.555863 0.796163 0.556213 0.204543
H6    H     H_    0.542169 0.209100 0.443859 0.203680
H7    H     H_    0.206492 0.542844 0.555503 0.203918
H8    H     H_    0.791885 0.539998 0.444446 0.203742
H9    H     H_    0.959402 0.708281 0.055581 0.203704
H10   H     H_    0.959124 0.293321 0.944486 0.203850
H11   H     H_    0.294187 0.946893 0.056200 0.204151
H12   H     H_    0.705107 0.948416 0.943873 0.204537
H13   H     H_    0.052363 0.295086 0.056105 0.204465
H14   H     H_    0.051360 0.706687 0.943799 0.203915
H15   H     H_    0.706530 0.042654 0.055500 0.203827
H16   H     H_    0.291955 0.040451 0.944451 0.203645
H17   H     H_    0.038318 0.711378 0.983847 0.150725
H18   H     H_    0.038869 0.290462 0.016070 0.151200
H19   H     H_    0.288437 0.025297 0.984464 0.150793
H20   H     H_    0.710129 0.027156 0.015498 0.151225
H21   H     H_    0.974352 0.289826 0.984466 0.151146
H22   H     H_    0.974238 0.711878 0.015562 0.150770
H23   H     H_    0.709791 0.962099 0.983907 0.151300
H24   H     H_    0.289296 0.960577 0.016138 0.150858
H25   H     H_    0.530617 0.212878 0.483880 0.150275
H26   H     H_    0.543958 0.791484 0.516234 0.150998
H27   H     H_    0.788402 0.524974 0.484457 0.150717
H28   H     H_    0.210098 0.527426 0.515500 0.151339
H29   H     H_    0.482327 0.789072 0.484401 0.150717
H30   H     H_    0.469099 0.211468 0.515761 0.150541
H31   H     H_    0.209863 0.462436 0.483906 0.151175
H32   H     H_    0.789347 0.460336 0.516137 0.150947
N1    N     N_R   0.504047 0.002053 0.593851 -0.298012
N2    N     N_R   0.503899 0.000120 0.406257 -0.297734
N3    N     N_R   0.000798 0.496461 0.593751 -0.296506
N4    N     N_R   0.998235 0.495969 0.406244 -0.297703
N5    N     N_R   0.004198 0.501906 0.093756 -0.297833
N6    N     N_R   0.003320 0.499598 0.906244 -0.295983
N7    N     N_R   0.500791 0.996518 0.093751 -0.296229
N8    N     N_R   0.498231 0.996118 0.906247 -0.297824
O1    O     O_3   0.500000 0.000000 0.750000 -0.539164
O2    O     O_3   0.500000 0.000000 0.250000 -0.539630
O3    O     O_3   0.000000 0.500000 0.750000 -0.539011
O4    O     O_3   0.000000 0.500000 0.250000 -0.539250
O5    O     O_R   0.500000 0.069020 0.799580 -0.595225
O6    O     O_R   0.500000 0.930980 0.200420 -0.598157
O7    O     O_R   0.930980 0.500000 0.799580 -0.597125
O8    O     O_R   0.069020 0.500000 0.200420 -0.597436
O9    O     O_R   0.500000 0.930980 0.799580 -0.597722
O10   O     O_R   0.500000 0.069020 0.200420 -0.595398
O11   O     O_R   0.069020 0.500000 0.799580 -0.594103
O12   O     O_R   0.930980 0.500000 0.200420 -0.594884
O13   O     O_R   0.000000 0.569020 0.299580 -0.595108
O14   O     O_R   0.000000 0.430980 0.700420 -0.598366
O15   O     O_R   0.430980 0.000000 0.299580 -0.594923
O16   O     O_R   0.569020 0.000000 0.700420 -0.597536
O17   O     O_R   0.000000 0.430980 0.299580 -0.597646
O18   O     O_R   0.000000 0.569020 0.700420 -0.595422
O19   O     O_R   0.569020 0.000000 0.299580 -0.594456
O20   O     O_R   0.430980 0.000000 0.700420 -0.595083
O21   O     O_R   0.597490 0.833170 0.762730 -0.624397
O22   O     O_R   0.402510 0.166830 0.237270 -0.618046
O23   O     O_R   0.166830 0.597490 0.762730 -0.625531
O24   O     O_R   0.833170 0.402510 0.237270 -0.617939
O25   O     O_R   0.402510 0.166830 0.762730 -0.623991
O26   O     O_R   0.597490 0.833170 0.237270 -0.617630
O27   O     O_R   0.833170 0.402510 0.762730 -0.624794
O28   O     O_R   0.166830 0.597490 0.237270 -0.616746
O29   O     O_R   0.597490 0.166830 0.237270 -0.623403
O30   O     O_R   0.402510 0.833170 0.762730 -0.617029
O31   O     O_R   0.166830 0.402510 0.237270 -0.624540
O32   O     O_R   0.833170 0.597490 0.762730 -0.617952
O33   O     O_R   0.402510 0.833170 0.237270 -0.624026
O34   O     O_R   0.597490 0.166830 0.762730 -0.618160
O35   O     O_R   0.833170 0.597490 0.237270 -0.624217
O36   O     O_R   0.166830 0.402510 0.762730 -0.615036
O37   O     O_R   0.097490 0.333170 0.262730 -0.624272
O38   O     O_R   0.902510 0.666830 0.737270 -0.618400
O39   O     O_R   0.666830 0.097490 0.262730 -0.625705
O40   O     O_R   0.333170 0.902510 0.737270 -0.617912
O41   O     O_R   0.902510 0.666830 0.262730 -0.623810
O42   O     O_R   0.097490 0.333170 0.737270 -0.617575
O43   O     O_R   0.333170 0.902510 0.262730 -0.625038
O44   O     O_R   0.666830 0.097490 0.737270 -0.616743
O45   O     O_R   0.097490 0.666830 0.737270 -0.623719
O46   O     O_R   0.902510 0.333170 0.262730 -0.616682
O47   O     O_R   0.666830 0.902510 0.737270 -0.624496
O48   O     O_R   0.333170 0.097490 0.262730 -0.616514
O49   O     O_R   0.902510 0.333170 0.737270 -0.623875
O50   O     O_R   0.097490 0.666830 0.262730 -0.617816
O51   O     O_R   0.333170 0.097490 0.737270 -0.624138
O52   O     O_R   0.666830 0.902510 0.262730 -0.613876
O53   O     O_2   0.448616 0.139280 0.593584 -0.470540
O54   O     O_2   0.459203 0.858970 0.406522 -0.471154
O55   O     O_2   0.863955 0.440110 0.593973 -0.470282
O56   O     O_2   0.135832 0.441628 0.406081 -0.469617
O57   O     O_2   0.559692 0.864943 0.594035 -0.470122
O58   O     O_2   0.548890 0.141125 0.406010 -0.470194
O59   O     O_2   0.137727 0.552676 0.593354 -0.469879
O60   O     O_2   0.860530 0.550106 0.406577 -0.469667
O61   O     O_2   0.949643 0.639555 0.093437 -0.470016
O62   O     O_2   0.949129 0.361813 0.906630 -0.471705
O63   O     O_2   0.363938 0.940183 0.093972 -0.470440
O64   O     O_2   0.635679 0.941376 0.906080 -0.469454
O65   O     O_2   0.058909 0.364349 0.093916 -0.469502
O66   O     O_2   0.057716 0.637254 0.906004 -0.471717
O67   O     O_2   0.637727 0.052716 0.093345 -0.470112
O68   O     O_2   0.360673 0.050653 0.906590 -0.469938
Zn1   Zn    Zn3+2 0.599000 0.000000 0.730930 1.083114
Zn2   Zn    Zn3+2 0.401000 0.000000 0.269070 1.083286
Zn3   Zn    Zn3+2 0.000000 0.599000 0.730930 1.082465
Zn4   Zn    Zn3+2 0.000000 0.401000 0.269070 1.083296
Zn5   Zn    Zn3+2 0.401000 0.000000 0.730930 1.083442
Zn6   Zn    Zn3+2 0.599000 0.000000 0.269070 1.087600
Zn7   Zn    Zn3+2 0.000000 0.401000 0.730930 1.085994
Zn8   Zn    Zn3+2 0.000000 0.599000 0.269070 1.083684
Zn9   Zn    Zn3+2 0.099000 0.500000 0.230930 1.083042
Zn10  Zn    Zn3+2 0.901000 0.500000 0.769070 1.083059
Zn11  Zn    Zn3+2 0.500000 0.099000 0.230930 1.082727
Zn12  Zn    Zn3+2 0.500000 0.901000 0.769070 1.082987
Zn13  Zn    Zn3+2 0.901000 0.500000 0.230930 1.083311
Zn14  Zn    Zn3+2 0.099000 0.500000 0.769070 1.088860
Zn15  Zn    Zn3+2 0.500000 0.901000 0.230930 1.084761
Zn16  Zn    Zn3+2 0.500000 0.099000 0.769070 1.083322
S1    S     S_3+6 0.576969 0.157323 0.668183 0.120500
O69   O     O_2   0.664314 0.143996 0.676960 -0.229248
O70   O     O_2   0.576086 0.232780 0.653080 -0.158416
O71   O     O_3   0.512399 0.177140 0.689825 -0.594004
H33   H     H_    0.538558 0.224821 0.697854 0.371930
S2    S     S_3+6 0.588428 0.849431 0.332364 0.119853
O72   O     O_2   0.673717 0.868871 0.322935 -0.217212
O73   O     O_2   0.594914 0.775505 0.347885 -0.169986
O74   O     O_3   0.523776 0.822834 0.311283 -0.598915
H34   H     H_    0.544458 0.767678 0.305899 0.378976
S3    S     S_3+6 0.844240 0.576754 0.667388 0.121335
O75   O     O_2   0.857623 0.664946 0.675592 -0.228908
O76   O     O_2   0.769212 0.574661 0.652197 -0.156562
O77   O     O_3   0.823630 0.514264 0.689425 -0.594169
H35   H     H_    0.777660 0.542686 0.697577 0.371696
S4    S     S_3+6 0.154822 0.577948 0.332766 0.119685
O78   O     O_2   0.141288 0.666117 0.324569 -0.226094
O79   O     O_2   0.229596 0.575932 0.348057 -0.162257
O80   O     O_3   0.175943 0.515712 0.310741 -0.596388
H36   H     H_    0.224582 0.542218 0.303221 0.372684
S5    S     S_3+6 0.421781 0.845212 0.667275 0.121266
O81   O     O_2   0.333740 0.859081 0.675499 -0.226020
O82   O     O_2   0.423347 0.770335 0.651999 -0.159191
O83   O     O_3   0.484036 0.823895 0.689291 -0.595638
H37   H     H_    0.457418 0.775277 0.696809 0.373345
S6    S     S_3+6 0.410106 0.148861 0.332750 0.122715
O84   O     O_2   0.323969 0.127986 0.324147 -0.223213
O85   O     O_2   0.404650 0.223318 0.348109 -0.160805
O86   O     O_3   0.471782 0.175654 0.311038 -0.594232
H38   H     H_    0.441447 0.221567 0.303343 0.373235
S7    S     S_3+6 0.158370 0.426948 0.667904 0.119548
O87   O     O_2   0.148387 0.338846 0.676483 -0.226885
O88   O     O_2   0.233367 0.431287 0.652704 -0.161255
O89   O     O_3   0.176314 0.491398 0.689669 -0.596673
H39   H     H_    0.227251 0.468906 0.697014 0.373566
S8    S     S_3+6 0.842782 0.423223 0.331921 0.119286
O90   O     O_2   0.855795 0.335766 0.323159 -0.229019
O91   O     O_2   0.767507 0.424462 0.347066 -0.160847
O92   O     O_3   0.823002 0.487792 0.310279 -0.594730
H40   H     H_    0.775320 0.461670 0.302248 0.371374
S9    S     S_3+6 0.077609 0.656937 0.168133 0.120664
O93   O     O_2   0.164804 0.643183 0.176976 -0.229134
O94   O     O_2   0.077275 0.732361 0.153020 -0.158359
O95   O     O_3   0.012918 0.677126 0.189724 -0.593776
H41   H     H_    0.039189 0.724737 0.197760 0.372032
S10   S     S_3+6 0.078472 0.343357 0.832144 0.118959
O96   O     O_2   0.166900 0.355744 0.824041 -0.213932
O97   O     O_2   0.075489 0.268055 0.847298 -0.172294
O98   O     O_3   0.016601 0.323224 0.809979 -0.603266
H42   H     H_    0.030587 0.265055 0.805412 0.380327
S11   S     S_3+6 0.344146 0.076527 0.167388 0.121344
O99   O     O_2   0.357371 0.164743 0.175590 -0.228980
O100  O     O_2   0.269130 0.074261 0.152196 -0.156544
O101  O     O_3   0.323647 0.014021 0.189427 -0.594047
H43   H     H_    0.277717 0.042423 0.197598 0.371723
S12   S     S_3+6 0.655026 0.077453 0.832760 0.119799
O102  O     O_2   0.641770 0.165629 0.824545 -0.227254
O103  O     O_2   0.729774 0.075194 0.848058 -0.161033
O104  O     O_3   0.675930 0.015080 0.810754 -0.595832
H44   H     H_    0.724534 0.041479 0.803196 0.372720
S13   S     S_3+6 0.921063 0.345620 0.167241 0.121444
O105  O     O_2   0.833186 0.360065 0.175527 -0.225966
O106  O     O_2   0.921966 0.270738 0.151968 -0.159059
O107  O     O_3   0.983425 0.323923 0.189213 -0.595444
H45   H     H_    0.956562 0.275498 0.196758 0.373400
S14   S     S_3+6 0.921012 0.654882 0.832557 0.121657
O108  O     O_2   0.832879 0.640686 0.824409 -0.227169
O109  O     O_2   0.922312 0.730045 0.847732 -0.157770
O110  O     O_3   0.982973 0.676295 0.810456 -0.594499
H46   H     H_    0.954387 0.722691 0.802489 0.371962
S15   S     S_3+6 0.658452 0.927167 0.167899 0.119672
O111  O     O_2   0.648603 0.839030 0.176459 -0.226823
O112  O     O_2   0.733445 0.931695 0.152700 -0.161163
O113  O     O_3   0.676305 0.991565 0.189677 -0.596410
H47   H     H_    0.727084 0.968940 0.197069 0.373587
S16   S     S_3+6 0.342598 0.923776 0.831926 0.120004
O114  O     O_2   0.355356 0.836287 0.823165 -0.229491
O115  O     O_2   0.267326 0.925298 0.847068 -0.159058
O116  O     O_3   0.323052 0.988402 0.810287 -0.594071
H48   H     H_    0.275429 0.962352 0.802218 0.371623
S17   S     S_3+6 0.637272 0.113177 0.616149 0.139286
O117  O     O_2   0.605528 0.197260 0.608442 -0.213963
O118  O     O_2   0.710429 0.126486 0.631563 -0.154031
O119  O     O_3   0.671316 0.058204 0.593910 -0.550339
H49   H     H_    0.685940 0.100925 0.582514 0.378504
S18   S     S_3+6 0.646625 0.901775 0.384083 0.136923
O120  O     O_2   0.622032 0.816360 0.392537 -0.215250
O121  O     O_2   0.720005 0.892962 0.368503 -0.157060
O122  O     O_3   0.676680 0.961843 0.405791 -0.551946
H50   H     H_    0.701492 0.922164 0.416715 0.382406
S19   S     S_3+6 0.889324 0.631653 0.614974 0.137506
O123  O     O_2   0.805758 0.598671 0.607331 -0.216286
O124  O     O_2   0.875392 0.706380 0.629836 -0.153725
O125  O     O_3   0.944879 0.663579 0.592604 -0.552347
H51   H     H_    0.902509 0.678155 0.581130 0.378639
S20   S     S_3+6 0.108338 0.632721 0.385081 0.138288
O126  O     O_2   0.192225 0.600735 0.392791 -0.216833
O127  O     O_2   0.121653 0.707572 0.370224 -0.153157
O128  O     O_3   0.052211 0.664044 0.407399 -0.550553
H52   H     H_    0.094232 0.677688 0.419044 0.378094
S21   S     S_3+6 0.367540 0.891446 0.614895 0.138309
O129  O     O_2   0.399799 0.807571 0.607195 -0.215854
O130  O     O_2   0.292706 0.877834 0.629719 -0.153361
O131  O     O_3   0.336140 0.947482 0.592564 -0.551089
H53   H     H_    0.322486 0.905297 0.580950 0.378321
S22   S     S_3+6 0.358953 0.098450 0.385118 0.136253
O132  O     O_2   0.384758 0.184167 0.393066 -0.216283
O133  O     O_2   0.283579 0.106825 0.370207 -0.156083
O134  O     O_3   0.331577 0.039408 0.407280 -0.553414
H54   H     H_    0.308698 0.079600 0.418334 0.381863
S23   S     S_3+6 0.113782 0.364796 0.616080 0.136747
O135  O     O_2   0.197377 0.397559 0.608391 -0.210481
O136  O     O_2   0.127576 0.291604 0.631475 -0.159707
O137  O     O_3   0.059271 0.330520 0.593794 -0.556338
H55   H     H_    0.102067 0.308126 0.583371 0.383542
S24   S     S_3+6 0.887489 0.362461 0.383882 0.139344
O138  O     O_2   0.803414 0.393910 0.391621 -0.214591
O139  O     O_2   0.874424 0.289270 0.368448 -0.153546
O140  O     O_3   0.942685 0.328543 0.406094 -0.550232
H56   H     H_    0.900181 0.313670 0.417511 0.378497
S25   S     S_3+6 0.137697 0.612449 0.116108 0.139025
O141  O     O_2   0.106159 0.696477 0.108335 -0.214424
O142  O     O_2   0.210837 0.625681 0.131539 -0.153988
O143  O     O_3   0.171627 0.557129 0.093923 -0.550226
H57   H     H_    0.186339 0.599606 0.082475 0.378300
S26   S     S_3+6 0.137025 0.388333 0.884202 0.136760
O144  O     O_2   0.105376 0.303884 0.891677 -0.209399
O145  O     O_2   0.210941 0.375876 0.869005 -0.159302
O146  O     O_3   0.169671 0.442848 0.906680 -0.558677
H58   H     H_    0.193390 0.400074 0.916879 0.384532
S27   S     S_3+6 0.389221 0.131612 0.114990 0.137438
O147  O     O_2   0.305659 0.098610 0.107352 -0.216020
O148  O     O_2   0.375288 0.206320 0.129858 -0.153894
O149  O     O_3   0.444731 0.163575 0.092615 -0.552734
H59   H     H_    0.402329 0.178416 0.081174 0.378890
S28   S     S_3+6 0.608643 0.132519 0.885059 0.138920
O150  O     O_2   0.692386 0.100305 0.892805 -0.216962
O151  O     O_2   0.622272 0.207271 0.870187 -0.152263
O152  O     O_3   0.552483 0.164157 0.907346 -0.548920
H60   H     H_    0.594187 0.174404 0.919314 0.375950
S29   S     S_3+6 0.867294 0.392036 0.114838 0.137951
O153  O     O_2   0.899336 0.308196 0.107089 -0.216360
O154  O     O_2   0.792425 0.378579 0.129666 -0.153360
O155  O     O_3   0.836113 0.448402 0.092548 -0.551209
H61   H     H_    0.822266 0.406439 0.080898 0.378191
S30   S     S_3+6 0.866564 0.609300 0.884961 0.136202
O156  O     O_2   0.898385 0.693544 0.892510 -0.214182
O157  O     O_2   0.791745 0.622132 0.870091 -0.156594
O158  O     O_3   0.835396 0.553719 0.907403 -0.555521
H62   H     H_    0.815702 0.596167 0.918270 0.382007
S31   S     S_3+6 0.613930 0.864968 0.116078 0.136211
O159  O     O_2   0.697533 0.897764 0.108411 -0.209410
O160  O     O_2   0.627673 0.791756 0.131471 -0.161121
O161  O     O_3   0.559533 0.830726 0.093770 -0.557733
H63   H     H_    0.602176 0.806312 0.083637 0.384864
S32   S     S_3+6 0.387090 0.862979 0.883893 0.138614
O162  O     O_2   0.303140 0.894711 0.891631 -0.213546
O163  O     O_2   0.373845 0.789787 0.868467 -0.155490
O164  O     O_3   0.442166 0.828969 0.906116 -0.551461
H64   H     H_    0.399557 0.812620 0.917358 0.379439

loop_
_geom_bond_atom_site_label_1
_geom_bond_atom_site_label_2
_ccdc_geom_bond_type
C113  C177  A    
S31   O159  D    
C11   C171  A    
O98   H42   S    
C24   C184  A    
C106  C170  A    
O158  H62   S    
C85   O43   A    
C9    C169  A    
C86   O44   A    
O140  H56   S    
O86   H38   S    
C12   C172  A    
C107  C171  A    
O146  H58   S    
C13   C173  A    
C6    O14   A    
C149  S9    S    
C4    O8    A    
C109  C173  A    
C130  C146  A    
C8    O20   A    
O27   Zn10  S    
O107  H45   S    
C119  O67   S    
C143  S3    S    
S22   O134  S    
C113  O61   S    
C115  O63   S    
S32   O162  D    
S29   O154  D    
O9    Zn12  S    
C84   O32   A    
C27   C143  A    
O10   Zn11  S    
C67   H27   S    
C28   C144  A    
C84   C91   S    
O32   Zn10  S    
S13   O107  S    
C31   C147  A    
C8    O16   A    
C138  S6    S    
C88   C95   S    
S22   O133  D    
O2    Zn11  S    
C147  S15   S    
C76   O24   A    
O3    Zn10  S    
O4    Zn13  S    
C136  C152  A    
C124  C140  A    
O12   Zn13  S    
O25   Zn16  S    
C118  C182  A    
O26   Zn15  S    
C135  C159  A    
C80   C103  S    
C45   C69   A    
C70   H30   S    
S23   O137  S    
C9    C70   A    
C73   O47   A    
C87   O35   A    
C74   O48   A    
O89   H39   S    
C123  C155  A    
S2    O72   D    
C168  C180  A    
C86   C89   S    
C151  S11   S    
C42   C45   A    
O43   Zn2   S    
C109  O57   S    
C146  S14   S    
O95   H41   S    
C50   C165  A    
C119  N7    A    
C133  C149  A    
C156  N4    S    
C127  C143  A    
S20   O126  D    
C128  C144  A    
C93   C100  T    
C47   C71   A    
C105  C169  A    
C74   C101  S    
C107  N3    A    
C126  C154  A    
O21   Zn12  S    
O143  H57   S    
C160  N8    S    
C12   C71   A    
O22   Zn11  S    
C105  N1    A    
C116  C180  A    
C35   C51   A    
S17   O117  D    
C78   O26   A    
C140  S8    S    
O116  H48   S    
O29   Zn11  S    
C19   C179  A    
O30   Zn12  S    
C17   C177  A    
S19   O124  D    
C15   H7    S    
C1    O9    A    
C21   H13   S    
S15   O113  S    
S16   O115  D    
C85   C90   S    
C33   C38   A    
O4    Zn4   S    
C35   C40   A    
C49   C166  A    
S6    O86   S    
O19   Zn6   S    
O16   Zn1   S    
C46   C70   A    
S18   O120  D    
C128  C156  A    
O46   Zn4   S    
C10   C69   A    
C73   O21   A    
C24   H16   S    
O3    Zn14  S    
S11   O99   D    
C34   C58   A    
C81   O29   A    
S21   O129  D    
C33   C49   A    
C62   H22   S    
O51   Zn5   S    
C58   H18   S    
C38   C62   A    
C39   C51   A    
S3    O76   D    
S9    O93   D    
C118  N6    A    
C165  C177  A    
C77   O51   A    
S23   O135  D    
C166  C182  A    
C78   O52   A    
C163  C175  A    
O17   Zn4   S    
O35   Zn13  S    
O18   Zn3   S    
S25   O141  D    
C134  S26   S    
S31   O160  D    
O2    Zn2   S    
C7    C26   S    
O131  H53   S    
C132  S32   S    
S27   O148  D    
O1    Zn1   S    
O101  H43   S    
S19   O123  D    
C123  C139  A    
O71   H33   S    
C112  O60   S    
O39   Zn6   S    
C121  C137  A    
S14   O108  D    
C126  S18   S    
C60   H20   S    
C86   O34   A    
C6    C27   S    
C125  C141  A    
C114  C178  A    
S17   O119  S    
C131  C147  A    
S30   O156  D    
C150  S10   S    
C66   H26   S    
C153  N1    S    
C36   C52   A    
O13   Zn8   S    
C3    O11   A    
O14   Zn7   S    
C45   C53   A    
C120  N8    A    
C96   C97   T    
C157  N5    S    
C4    O12   A    
C111  N3    A    
C48   C72   A    
C13   C66   A    
S1    O70   D    
O45   Zn3   S    
O2    Zn6   S    
O83   H37   S    
C3    O7    A    
C13   H5    S    
S6    O84   D    
C114  O62   S    
O1    Zn16  S    
C130  S30   S    
C29   C149  A    
C27   C139  A    
S28   O150  D    
S14   O110  S    
O31   Zn9   S    
C25   C137  A    
C23   C183  A    
C31   C151  A    
C32   C152  A    
C78   C97   S    
C112  N4    A    
C16   C67   A    
C119  C183  A    
S21   O131  S    
C131  C159  A    
C120  C184  A    
C41   C53   A    
C106  O54   S    
C43   C55   A    
S24   O138  D    
C112  C176  A    
C81   O39   A    
S9    O95   S    
C141  S1    S    
C108  C172  A    
C82   O40   A    
O137  H55   S    
C83   O37   A    
C68   H28   S    
O4    Zn9   S    
O125  H51   S    
S25   O143  S    
O41   Zn8   S    
C139  S7    S    
O42   Zn7   S    
C111  O59   S    
C36   C39   A    
C118  O66   S    
C7    O15   A    
O155  H61   S    
O52   Zn6   S    
C110  O58   S    
O23   Zn14  S    
S12   O104  S    
C85   O33   A    
C20   C63   A    
C21   C58   A    
C22   C182  A    
O122  H50   S    
O6    Zn15  S    
C110  C174  A    
C24   C59   A    
C71   H31   S    
C10   H2    S    
C14   C65   A    
S11   O101  S    
C133  C157  A    
C134  C158  A    
C54   C161  A    
C164  C172  A    
C2    O6    A    
C136  C160  A    
S7    O89   S    
S8    O90   D    
C18   C178  A    
C43   C67   A    
S29   O153  D    
C80   O28   A    
C57   H17   S    
C6    O18   A    
C91   C102  T    
O149  H59   S    
O48   Zn2   S    
S13   O106  D    
C167  C179  A    
O113  H47   S    
O4    Zn8   S    
C34   C37   A    
S4    O78   D    
S20   O128  S    
C84   O38   A    
S26   O144  D    
S15   O111  D    
O15   Zn2   S    
C127  S19   S    
C5    O13   A    
S28   O152  S    
C115  N7    A    
S23   O136  D    
C52   C167  A    
C29   C145  A    
C74   O22   A    
C53   C162  A    
C30   C150  A    
C18   H10   S    
S2    O73   D    
C105  O53   S    
C35   C59   A    
O47   Zn1   S    
C117  N5    A    
C2    O10   A    
S24   O140  S    
C76   O46   A    
C129  S29   S    
C155  N3    S    
C166  C178  A    
C163  C171  A    
C4    C29   S    
C117  O65   S    
C16   C176  A    
S2    O74   S    
O77   H35   S    
C79   O49   A    
C82   C93   S    
C63   H23   S    
C8    C25   S    
C148  S16   S    
O152  H60   S    
C69   H29   S    
C122  C138  A    
C127  C155  A    
O92   H40   S    
O161  H63   S    
O2    Zn15  S    
C133  S25   S    
C126  C142  A    
C83   O31   A    
C116  N8    A    
S27   O147  D    
O49   Zn7   S    
C152  S12   S    
O50   Zn8   S    
C17   C62   A    
C37   C49   A    
C44   C56   A    
S26   O145  D    
S7    O87   D    
C162  C170  A    
S8    O92   S    
C19   C64   A    
S29   O155  S    
C46   C54   A    
C114  N6    A    
O33   Zn15  S    
S18   O121  D    
C92   C101  T    
C87   O41   A    
C162  C174  A    
C73   C102  S    
C106  N2    A    
S22   O132  D    
C142  S2    S    
C111  C175  A    
C77   O25   A    
C120  O68   S    
C75   O23   A    
S30   O158  S    
C124  S24   S    
C79   O27   A    
C22   H14   S    
C25   C141  A    
O119  H49   S    
C26   C138  A    
S18   O122  S    
S4    O79   D    
O8    Zn9   S    
C32   C148  A    
C10   C170  A    
C130  C158  A    
C121  C153  A    
O80   H36   S    
C14   C174  A    
O5    Zn16  S    
C42   C54   A    
C135  C151  A    
S12   O103  D    
C164  C176  A    
C117  C181  A    
S14   O109  D    
C90   C103  T    
C88   O36   A    
S3    O75   D    
C108  N4    A    
C59   H19   S    
S17   O118  D    
C82   O30   A    
S30   O157  D    
O28   Zn9   S    
C134  C150  A    
S19   O125  S    
O24   Zn13  S    
C19   H11   S    
C81   C94   S    
C123  S23   S    
S5    O81   D    
C17   H9    S    
O104  H44   S    
C28   C140  A    
C107  O55   S    
S16   O114  D    
C22   C57   A    
C129  C157  A    
O134  H54   S    
C122  S22   S    
C95   C98   T    
O1    Zn5   S    
C20   C180  A    
S1    O69   D    
S12   O102  D    
C76   C99   S    
C21   C181  A    
C83   C92   S    
C64   H24   S    
C56   C163  A    
C132  C160  A    
C11   H3    S    
S20   O127  D    
C55   C164  A    
C9    H1    S    
O11   Zn14  S    
S6    O85   D    
S15   O112  D    
C125  S17   S    
C12   H4    S    
C23   H15   S    
C161  C173  A    
S28   O151  D    
O44   Zn1   S    
C16   H8    S    
C167  C183  A    
C168  C184  A    
C41   C46   A    
C154  N2    S    
C43   C48   A    
C65   H25   S    
C44   C47   A    
S24   O139  D    
S3    O77   S    
C158  N6    S    
O1    Zn12  S    
O34   Zn16  S    
C122  C154  A    
C51   C168  A    
C11   C72   A    
C125  C153  A    
O20   Zn5   S    
C30   C146  A    
S25   O142  D    
C23   C60   A    
S31   O161  S    
C34   C50   A    
C132  C148  A    
C109  N1    A    
O40   Zn5   S    
S27   O149  S    
S32   O164  S    
C41   C65   A    
C75   O45   A    
C40   C52   A    
C1    C32   S    
O36   Zn14  S    
C2    C31   S    
C14   H6    S    
C3    C30   S    
C144  S4    S    
C5    C28   S    
O164  H64   S    
C135  S27   S    
O128  H52   S    
C113  N5    A    
C87   C96   S    
C80   O50   A    
S5    O82   D    
C77   C98   S    
S11   O100  D    
O110  H46   S    
C137  S5    S    
S32   O163  D    
S7    O88   D    
S8    O91   D    
S10   O96   D    
S10   O97   D    
C131  S31   S    
C124  C156  A    
C89   C104  T    
S5    O83   S    
C79   C104  S    
C44   C68   A    
S21   O130  D    
C121  S21   S    
C7    O19   A    
S16   O116  S    
C47   C55   A    
S13   O105  D    
S1    O71   S    
C48   C56   A    
C33   C57   A    
C72   H32   S    
C36   C60   A    
C37   C61   A    
C18   C61   A    
C38   C50   A    
S10   O98   S    
C39   C63   A    
C40   C64   A    
C15   C175  A    
C165  C181  A    
C161  C169  A    
C26   C142  A    
C136  S28   S    
C88   O42   A    
C94   C99   T    
C159  N7    S    
C15   C68   A    
C75   C100  S    
C116  O64   S    
O3    Zn3   S    
C129  C145  A    
O74   H34   S    
C110  N2    A    
S26   O146  S    
C145  S13   S    
C1    O5    A    
O3    Zn7   S    
S4    O80   S    
S9    O94   D    
O37   Zn4   S    
C61   H21   S    
C42   C66   A    
O38   Zn3   S    
C128  S20   S    
C5    O17   A    
C108  O56   S    
C20   H12   S    
O7    Zn10  S    
C115  C179  A    
