data_mof_unit_1833.cif
_audit_creation_date              2012-12-11T15:12:14-0500
_audit_creation_method            fapswitch 2.2
_symmetry_space_group_name_H-M    P1
_symmetry_Int_Tables_number       1
_space_group_crystal_system       triclinic
_cell_length_a                    31.22768
_cell_length_b                    22.596504
_cell_length_c                    18.140242
_cell_angle_alpha                 90.087928
_cell_angle_beta                  124.339204
_cell_angle_gamma                 89.857551
_cell_volume                      10569.4300476

loop_
_atom_site_label
_atom_site_type_symbol
_atom_type_description
_atom_site_fract_x
_atom_site_fract_y
_atom_site_fract_z
_atom_type_partial_charge
C1    C     C_R   0.533944 0.609965 0.706935 0.702378
C2    C     C_R   0.238243 0.636836 0.493673 -0.189591
C3    C     C_R   0.319533 0.308323 0.960847 -0.442594
C4    C     C_R   0.836621 0.239360 0.008697 -0.473551
C5    C     C_R   0.205777 0.866314 0.077968 -0.419948
C6    C     C_R   0.128246 0.314953 0.840224 -0.454198
C7    C     C_R   0.819742 0.810194 0.958182 -0.441554
C8    C     C_R   0.299339 0.810128 0.129579 0.111891
C9    C     C_R   0.728139 0.239407 0.901084 0.084124
C10   C     C_R   0.713995 0.788628 0.877930 0.075267
C11   C     C_R   0.235937 0.338271 0.931844 0.097273
C12   C     C_R   0.754242 0.186526 0.943731 0.100233
C13   C     C_R   0.244582 0.326666 0.472513 -0.203326
C14   C     C_R   0.274321 0.847754 0.055131 0.101248
C15   C     C_R   0.215067 0.283747 0.887874 0.080691
C16   C     C_R   0.735289 0.842706 0.923609 0.095553
C17   C     C_R   0.756282 0.286376 0.897023 -0.160548
C18   C     C_R   0.278912 0.803902 0.181461 -0.250400
C19   C     C_R   0.201083 0.382443 0.922824 -0.246655
C20   C     C_R   0.743654 0.751727 0.860759 -0.192534
C21   C     C_R   0.302118 0.868675 0.020441 -0.237399
C22   C     C_R   0.724681 0.134092 0.920698 -0.234543
C23   C     C_R   0.700282 0.886919 0.914024 -0.233537
C24   C     C_R   0.746155 0.643653 0.469530 -0.170781
C25   C     C_R   0.244613 0.246915 0.870050 -0.251303
C26   C     C_R   0.809946 0.285225 0.947288 0.922809
C27   C     C_R   0.234485 0.835297 0.159289 0.903510
C28   C     C_R   0.147715 0.371629 0.874719 0.914185
C29   C     C_R   0.795172 0.763591 0.897243 0.928475
C30   C     C_R   0.353947 0.852239 0.060049 0.915480
C31   C     C_R   0.670558 0.135725 0.864277 0.918366
C32   C     C_R   0.646676 0.876378 0.864355 0.933522
C33   C     C_R   0.295426 0.260464 0.902587 0.898584
C34   C     C_R   0.597347 0.580133 0.428558 0.391080
C35   C     C_R   0.217358 0.799367 0.484262 -0.199070
C36   C     C_R   0.405364 0.418521 0.575680 0.498434
C37   C     C_R   0.404018 0.575168 0.576279 0.515200
C38   C     C_R   0.594780 0.413036 0.428175 0.390346
C39   C     C_R   0.096796 0.077793 0.426911 0.419425
C40   C     C_R   0.925551 0.888806 0.573974 0.470151
C41   C     C_R   0.901800 0.079111 0.570643 0.467783
C42   C     C_R   0.075141 0.889032 0.426235 0.447859
C43   C     C_R   0.397274 0.611731 0.299900 0.750454
C44   C     C_R   0.604511 0.390330 0.706001 0.715426
C45   C     C_R   0.604325 0.610106 0.704677 0.719185
C46   C     C_R   0.775357 0.174776 0.555563 -0.170876
C47   C     C_R   0.383532 0.418209 0.254682 0.754593
C48   C     C_R   0.887821 0.097620 0.270725 0.764006
C49   C     C_R   0.119118 0.926375 0.746505 0.825832
C50   C     C_R   0.105352 0.108750 0.708433 0.719316
C51   C     C_R   0.882725 0.921440 0.252655 0.762930
C52   C     C_R   0.577344 0.642946 0.730721 -0.238249
C53   C     C_R   0.402110 0.407817 0.200682 -0.234696
C54   C     C_R   0.422506 0.642877 0.268471 -0.243166
C55   C     C_R   0.577735 0.358501 0.733514 -0.187284
C56   C     C_R   0.078811 0.140146 0.736917 -0.237278
C57   C     C_R   0.795463 0.796348 0.544836 -0.168960
C58   C     C_R   0.901254 0.911020 0.198828 -0.245850
C59   C     C_R   0.910113 0.120312 0.228472 -0.285630
C60   C     C_R   0.103015 0.914992 0.801828 -0.264184
C61   C     C_R   0.646145 0.590263 0.502477 -0.277229
C62   C     C_R   0.356469 0.404732 0.500707 -0.254593
C63   C     C_R   0.353178 0.582315 0.502278 -0.326705
C64   C     C_R   0.644602 0.403695 0.502749 -0.254544
C65   C     C_R   0.145714 0.089185 0.499391 -0.254676
C66   C     C_R   0.886716 0.858705 0.499124 -0.349216
C67   C     C_R   0.852806 0.090266 0.495450 -0.256344
C68   C     C_R   0.254377 0.163896 0.510341 -0.179108
C69   C     C_R   0.113322 0.858069 0.501339 -0.337047
C70   C     C_R   0.701331 0.320587 0.574765 -0.184029
C71   C     C_R   0.318894 0.680604 0.483661 -0.233557
C72   C     C_R   0.342490 0.300946 0.508320 -0.292204
C73   C     C_R   0.695419 0.679287 0.549870 -0.206957
C74   C     C_R   0.142272 0.756883 0.510484 -0.226602
C75   C     C_R   0.797289 0.174998 0.425915 -0.204657
C76   C     C_R   0.844770 0.763011 0.460619 -0.187264
C77   C     C_R   0.158417 0.190969 0.481886 -0.197560
C78   C     C_R   0.683699 0.365804 0.511478 -0.055078
C79   C     C_R   0.737968 0.272696 0.504882 -0.026588
C80   C     C_R   0.314532 0.620521 0.495064 -0.102713
C81   C     C_R   0.323931 0.358779 0.495329 -0.124439
C82   C     C_R   0.685394 0.624888 0.507312 -0.009224
C83   C     C_R   0.148069 0.816955 0.502084 -0.014201
C84   C     C_R   0.814265 0.129022 0.488074 -0.036995
C85   C     C_R   0.851801 0.818539 0.498807 -0.034790
C86   C     C_R   0.177581 0.133357 0.498744 -0.058017
C87   C     C_R   0.696772 0.368153 0.450023 0.825695
C88   C     C_R   0.272820 0.597841 0.494147 0.843139
C89   C     C_R   0.274324 0.371727 0.472011 0.882642
C90   C     C_R   0.244160 0.698262 0.487283 -0.034535
C91   C     C_R   0.711236 0.605715 0.469357 0.812170
C92   C     C_R   0.185351 0.838686 0.489898 0.807809
C93   C     C_R   0.800871 0.126805 0.549260 0.837336
C94   C     C_R   0.826820 0.836061 0.539093 0.808976
C95   C     C_R   0.225291 0.119117 0.514133 0.822700
C96   C     C_3   0.486679 0.257307 0.734013 0.271029
C97   C     C_3   0.471832 0.196662 0.750747 -0.294006
C98   C     C_3   0.431716 0.202716 0.773322 -0.848981
C99   C     C_3   0.523908 0.732625 0.358670 0.274391
C100  C     C_3   0.540269 0.797474 0.382720 -0.351934
C101  C     C_R   0.264065 0.268027 0.490237 -0.036814
C102  C     C_3   0.574385 0.806291 0.483745 -0.891931
C103  C     C_3   0.444077 0.421201 0.036218 0.341651
C104  C     C_3   0.472755 0.401544 0.994262 -0.337854
C105  C     C_3   0.476605 0.452065 0.942498 -0.977327
C106  C     C_3   0.485636 0.735656 0.598480 0.175661
C107  C     C_3   0.454675 0.791095 0.548219 -0.192737
C108  C     C_3   0.427473 0.784187 0.447473 -0.946847
C109  C     C_3   0.094704 0.013830 0.930581 0.290776
C110  C     C_3   0.118945 0.048035 0.018276 -0.379189
C111  C     C_3   0.124516 0.113566 0.005034 -0.847343
C112  C     C_R   0.454312 0.422141 0.254733 0.659588
C113  C     C_R   0.754977 0.700069 0.509608 -0.027690
C114  C     C_3   0.969023 0.246528 0.285710 0.158454
C115  C     C_3   0.993524 0.307115 0.296132 -0.183153
C116  C     C_3   0.002605 0.340269 0.377144 -0.855010
C117  C     C_3   0.965677 0.895009 0.065812 0.370188
C118  C     C_3   0.983334 0.854673 0.019363 -0.424657
C119  C     C_3   0.026728 0.882873 0.016746 -0.846063
C120  C     C_3   0.992774 0.246019 0.604272 0.262286
C121  C     C_3   0.934968 0.235237 0.535591 -0.215347
C122  C     C_3   0.921195 0.237922 0.440471 -1.038115
C123  C     C_3   0.582821 0.534326 0.305319 0.351513
C124  C     C_R   0.211418 0.738027 0.491146 -0.042241
C125  C     C_3   0.583216 0.545289 0.222660 -0.245283
C126  C     C_3   0.590136 0.487611 0.186682 -0.897972
C127  C     C_3   0.398147 0.397213 0.694841 0.325248
C128  C     C_3   0.351743 0.422814 0.691780 -0.389902
C129  C     C_3   0.328863 0.377445 0.722608 -0.929861
C130  C     C_3   0.389190 0.580816 0.691147 0.327250
C131  C     C_3   0.390911 0.648285 0.705552 -0.413438
C132  C     C_3   0.430399 0.665689 0.802816 -0.620667
C133  C     C_3   0.567123 0.338966 0.325950 0.325237
C134  C     C_3   0.571028 0.320338 0.248987 -0.288199
C135  C     C_R   0.761545 0.223372 0.496857 -0.030191
C136  C     C_3   0.556873 0.255362 0.224832 -0.865551
C137  C     C_3   0.082960 0.028030 0.305379 0.344573
C138  C     C_3   0.137545 0.014229 0.329531 -0.471837
C139  C     C_3   0.137381 0.960198 0.278743 -0.698330
C140  C     C_3   0.962859 0.819675 0.686513 0.276271
C141  C     C_3   0.976246 0.806497 0.779980 -0.309372
C142  C     C_3   0.997255 0.743799 0.809684 -0.877895
C143  C     C_3   0.916268 0.019769 0.683493 0.358250
C144  C     C_3   0.921314 0.019572 0.772410 -0.201535
C145  C     C_3   0.916899 0.957179 0.799576 -0.911512
C146  C     C_R   0.787926 0.739547 0.506635 -0.038101
C147  C     C_3   0.041549 0.818175 0.314329 0.242069
C148  C     C_3   0.067057 0.792353 0.270049 -0.294359
C149  C     C_3   0.047185 0.730227 0.234208 -0.838376
C150  C     C_R   0.235028 0.222649 0.492810 -0.038425
C151  C     C_R   0.727874 0.273319 0.571361 -0.086615
C152  C     C_R   0.283607 0.720004 0.478934 -0.054557
C153  C     C_R   0.312723 0.254931 0.505814 -0.040160
C154  C     C_R   0.730065 0.717430 0.551372 -0.055268
C155  C     C_R   0.173323 0.716606 0.503402 -0.072491
C156  C     C_R   0.464030 0.607142 0.287223 0.689734
C157  C     C_R   0.771485 0.222681 0.430253 -0.094470
C158  C     C_R   0.812610 0.722755 0.464129 -0.087750
C159  C     C_R   0.186833 0.236139 0.478841 -0.050770
C160  C     C_R   0.733779 0.319730 0.379651 -0.269909
C161  C     C_R   0.199121 0.615895 0.502375 -0.251761
C162  C     C_R   0.196555 0.339332 0.458031 -0.232810
C163  C     C_R   0.771502 0.626925 0.429056 -0.241829
C164  C     C_R   0.254861 0.820215 0.471445 -0.188266
C165  C     C_R   0.765237 0.176088 0.621460 -0.246006
C166  C     C_R   0.771538 0.812547 0.587852 -0.241400
C167  C     C_R   0.534172 0.391480 0.709009 0.683151
C168  C     C_R   0.302051 0.151227 0.523202 -0.241730
C169  C     C_R   0.287996 0.780690 0.468883 0.782100
C170  C     C_R   0.741757 0.225356 0.629767 0.771617
C171  C     C_R   0.739055 0.773080 0.591592 0.764696
C172  C     C_R   0.331031 0.196539 0.520326 0.735809
C173  C     C_R   0.757715 0.270703 0.371972 0.780579
C174  C     C_R   0.166970 0.655607 0.507909 0.765873
C175  C     C_R   0.167943 0.294312 0.462112 0.742804
C176  C     C_R   0.804668 0.666319 0.426297 0.783958
C177  C     C_R   0.409284 0.703260 0.227932 -0.298822
C178  C     C_R   0.034908 0.107880 0.711034 0.659343
C179  C     C_R   0.595941 0.301666 0.781170 -0.244137
C180  C     C_R   0.591778 0.703338 0.768725 -0.257778
C181  C     C_R   0.372746 0.387005 0.105133 -0.248544
C182  C     C_R   0.886032 0.158528 0.149683 -0.246720
C183  C     C_R   0.139463 0.904665 0.899839 -0.283358
C184  C     C_R   0.093304 0.199163 0.778240 -0.260395
C185  C     C_R   0.872761 0.888500 0.104009 -0.215600
C186  C     C_R   0.427158 0.787675 0.165484 0.729316
C187  C     C_R   0.590008 0.194243 0.780706 0.719429
C188  C     C_R   0.573347 0.806884 0.778845 0.722829
C189  C     C_R   0.953313 0.925669 0.252712 0.701195
C190  C     C_R   0.372119 0.319130 0.000223 0.676120
C191  C     C_R   0.890019 0.244426 0.074080 0.723992
C192  C     C_R   0.159726 0.896599 0.050441 0.679687
C193  C     C_R   0.074683 0.302374 0.788874 0.718135
C194  C     C_R   0.873376 0.816774 0.004334 0.675897
C195  C     C_R   0.445294 0.738520 0.222808 0.347260
C196  C     C_R   0.565367 0.249808 0.752646 0.280938
C197  C     C_R   0.555484 0.749787 0.743380 0.337840
C198  C     C_R   0.398065 0.360708 0.068230 0.311730
C199  C     C_R   0.914211 0.205851 0.146449 0.356104
C200  C     C_R   0.958388 0.094862 0.268334 0.747561
C201  C     C_R   0.128422 0.919727 0.963592 0.343224
C202  C     C_R   0.057067 0.245637 0.752007 0.327759
C203  C     C_R   0.899699 0.857795 0.073332 0.278469
C204  C     C_R   0.359468 0.726811 0.192559 0.800729
C205  C     C_R   0.649228 0.297266 0.842777 0.786412
C206  C     C_R   0.644580 0.716028 0.824390 0.805632
C207  C     C_R   0.318059 0.386489 0.052015 0.781633
C208  C     C_R   0.834710 0.148304 0.078581 0.804416
C209  C     C_R   0.187958 0.878687 0.930956 0.796551
C210  C     C_R   0.145958 0.211183 0.835628 0.769945
C211  C     C_R   0.049453 0.924446 0.749332 0.626943
C212  C     C_R   0.817912 0.889915 0.047115 0.790531
C213  C     C_R   0.345914 0.782679 0.153077 -0.286229
C214  C     C_R   0.674173 0.242741 0.859481 -0.235451
C215  C     C_R   0.662006 0.774605 0.843468 -0.268099
C216  C     C_R   0.290567 0.346389 0.979835 -0.267583
C217  C     C_R   0.808652 0.189330 0.008103 -0.264755
C218  C     C_R   0.223326 0.866218 0.021441 -0.273286
C219  C     C_R   0.163402 0.269625 0.855011 -0.255783
C220  C     C_R   0.790430 0.849825 0.974427 -0.268877
C221  C     C_R   0.645572 0.576721 0.574263 0.819746
C222  C     C_R   0.723519 0.320955 0.445322 -0.193174
C223  C     C_R   0.356136 0.418234 0.427356 0.797674
C224  C     C_R   0.354011 0.572815 0.428928 0.882146
C225  C     C_R   0.645073 0.422165 0.574036 0.794220
C226  C     C_R   0.145482 0.077335 0.572659 0.845878
C227  C     C_R   0.873200 0.891418 0.425704 0.774503
C228  C     C_R   0.854475 0.076638 0.424617 0.739417
C229  C     C_R   0.126574 0.891115 0.574593 0.800797
C230  C     C_R   0.376231 0.808241 0.126450 -0.458660
C231  C     C_R   0.644578 0.190346 0.834919 -0.432511
C232  C     C_R   0.626942 0.819798 0.829014 -0.455710
F1    F     F_    0.499373 0.625168 0.725626 -0.649632
F2    F     F_    0.320432 0.692461 0.180410 -0.595976
F3    F     F_    0.292342 0.423129 0.073322 -0.612972
F4    F     F_    0.679131 0.670728 0.864794 -0.617663
F5    F     F_    0.198275 0.857202 0.872440 -0.617015
F6    F     F_    0.809746 0.101038 0.083528 -0.617066
F7    F     F_    0.791879 0.928137 0.065624 -0.597393
F8    F     F_    0.180215 0.165491 0.874594 -0.649638
F9    F     F_    0.459832 0.815546 0.149965 -0.581523
F10   F     F_    0.560687 0.144443 0.749401 -0.592577
F11   F     F_    0.538086 0.849805 0.760292 -0.583299
F12   F     F_    0.483400 0.437570 0.224807 -0.685616
F13   F     F_    0.399164 0.289075 0.974095 -0.633178
F14   F     F_    0.918071 0.289691 0.072584 -0.591786
F15   F     F_    0.146115 0.905992 0.108503 -0.665449
F16   F     F_    0.039290 0.345540 0.768498 -0.578508
F17   F     F_    0.901486 0.779344 0.988674 -0.634129
F18   F     F_    0.688488 0.564425 0.656410 -0.547669
F19   F     F_    0.313155 0.421432 0.343041 -0.544674
F20   F     F_    0.311259 0.563079 0.345534 -0.544238
F21   F     F_    0.688298 0.434846 0.655613 -0.556823
F22   F     F_    0.188808 0.066499 0.654885 -0.549138
F23   F     F_    0.489459 0.611723 0.247263 -0.623556
F24   F     F_    0.829928 0.883489 0.342835 -0.590232
F25   F     F_    0.812270 0.064283 0.341900 -0.559005
F26   F     F_    0.167446 0.881239 0.659489 -0.585526
F27   F     F_    0.360476 0.633777 0.309286 -0.626946
F28   F     F_    0.649447 0.373287 0.717689 -0.652236
F29   F     F_    0.647563 0.628274 0.711480 -0.635426
F30   F     F_    0.334015 0.413373 0.229694 -0.539498
F31   F     F_    0.838902 0.107688 0.246966 -0.559446
F32   F     F_    0.167255 0.946425 0.776395 -0.562994
F33   F     F_    0.149212 0.126660 0.717129 -0.629309
F34   F     F_    0.502591 0.381712 0.736018 -0.722764
F35   F     F_    0.832352 0.927491 0.222546 -0.507916
F36   F     F_    0.680942 0.414362 0.392339 -0.682336
F37   F     F_    0.268193 0.538586 0.499633 -0.649449
F38   F     F_    0.255958 0.428012 0.451314 -0.614535
F39   F     F_    0.702841 0.550651 0.433675 -0.684898
F40   F     F_    0.189865 0.897990 0.483033 -0.688252
F41   F     F_    0.813415 0.079021 0.603097 -0.704438
F42   F     F_    0.832870 0.891912 0.571782 -0.706981
F43   F     F_    0.242812 0.062323 0.532192 -0.655206
F44   F     F_    0.324428 0.801810 0.457192 -0.701915
F45   F     F_    0.001810 0.120507 0.734233 -0.634415
F46   F     F_    0.732064 0.225812 0.693992 -0.699956
F47   F     F_    0.715971 0.789561 0.633358 -0.710950
F48   F     F_    0.376830 0.183354 0.531673 -0.681511
F49   F     F_    0.767528 0.270308 0.307914 -0.672692
F50   F     F_    0.129980 0.634436 0.518213 -0.675069
F51   F     F_    0.122256 0.307739 0.450971 -0.723769
F52   F     F_    0.828446 0.649537 0.385877 -0.663797
F53   F     F_    0.835204 0.331974 0.941622 -0.575867
F54   F     F_    0.218204 0.832100 0.214547 -0.636312
F55   F     F_    0.115568 0.416693 0.862886 -0.591371
F56   F     F_    0.979705 0.947985 0.220567 -0.679866
F57   F     F_    0.821305 0.726897 0.876215 -0.594165
F58   F     F_    0.380781 0.876735 0.029505 -0.587804
F59   F     F_    0.644033 0.083936 0.841559 -0.582430
F60   F     F_    0.614591 0.921469 0.852676 -0.562094
F61   F     F_    0.321558 0.224275 0.880956 -0.604645
F62   F     F_    0.985425 0.093082 0.230973 -0.621078
F63   F     F_    0.020817 0.933647 0.782483 -0.691252
F64   F     F_    0.676596 0.347228 0.884951 -0.644048
H1    H     H_    0.736996 0.323759 0.853139 0.258185
H2    H     H_    0.350739 0.696329 0.480799 0.188228
H3    H     H_    0.431945 0.714654 0.809045 0.263545
H4    H     H_    0.469599 0.649060 0.826344 0.302304
H5    H     H_    0.527328 0.329844 0.307893 0.109756
H6    H     H_    0.594776 0.311048 0.384913 0.030592
H7    H     H_    0.544549 0.347947 0.189751 0.253783
H8    H     H_    0.611209 0.327644 0.267938 0.207017
H9    H     H_    0.583646 0.226730 0.282962 0.257063
H10   H     H_    0.560136 0.243439 0.168778 0.283827
H11   H     H_    0.516349 0.247388 0.203691 0.285054
H12   H     H_    0.056103 0.030137 0.231480 0.185645
H13   H     H_    0.380574 0.292506 0.522040 0.205371
H14   H     H_    0.068832 0.991577 0.327172 0.158743
H15   H     H_    0.152670 0.052963 0.313299 0.234340
H16   H     H_    0.163754 0.005239 0.402148 0.295819
H17   H     H_    0.122320 0.920873 0.293779 0.277570
H18   H     H_    0.177536 0.950564 0.299072 0.300356
H19   H     H_    0.112872 0.968774 0.205747 0.247668
H20   H     H_    0.998609 0.815814 0.687104 0.072981
H21   H     H_    0.935003 0.785383 0.641054 0.080806
H22   H     H_    0.005992 0.838112 0.828607 0.254825
H23   H     H_    0.940913 0.811838 0.780229 0.221391
H24   H     H_    0.674738 0.692332 0.579381 0.196178
H25   H     H_    0.967805 0.710878 0.763431 0.278378
H26   H     H_    0.006708 0.735966 0.877788 0.285690
H27   H     H_    0.033093 0.737795 0.811276 0.270075
H28   H     H_    0.950604 0.997761 0.692743 0.157633
H29   H     H_    0.880592 0.994931 0.633158 0.175852
H30   H     H_    0.959356 0.038779 0.825321 0.208181
H31   H     H_    0.890195 0.047460 0.766659 0.245084
H32   H     H_    0.879127 0.937072 0.747561 0.302889
H33   H     H_    0.919421 0.959109 0.863060 0.240698
H34   H     H_    0.948842 0.928869 0.809775 0.320929
H35   H     H_    0.112649 0.741996 0.519843 0.205642
H36   H     H_    0.998914 0.817305 0.266103 0.158942
H37   H     H_    0.049011 0.788895 0.369629 0.060124
H38   H     H_    0.058964 0.821543 0.214395 0.233497
H39   H     H_    0.109701 0.790527 0.318998 0.193380
H40   H     H_    0.056103 0.700087 0.289533 0.266399
H41   H     H_    0.066439 0.712946 0.202513 0.279946
H42   H     H_    0.004624 0.731145 0.183374 0.292014
H43   H     H_    0.807613 0.175836 0.378062 0.229517
H44   H     H_    0.864895 0.751445 0.429621 0.209957
H45   H     H_    0.121098 0.200108 0.471035 0.187395
H46   H     H_    0.722790 0.356250 0.333586 0.218985
H47   H     H_    0.194107 0.568923 0.506990 0.223439
H48   H     H_    0.181546 0.384134 0.445322 0.225013
H49   H     H_    0.299338 0.778387 0.242692 0.213183
H50   H     H_    0.765199 0.583752 0.398492 0.225749
H51   H     H_    0.259045 0.867081 0.464472 0.225414
H52   H     H_    0.775879 0.139389 0.667114 0.212252
H53   H     H_    0.777711 0.855750 0.618301 0.214325
H54   H     H_    0.316966 0.106402 0.535498 0.229916
H55   H     H_    0.450591 0.282666 0.688796 0.145243
H56   H     H_    0.509226 0.282444 0.798129 0.117388
H57   H     H_    0.455774 0.168315 0.690688 0.308608
H58   H     H_    0.506855 0.174691 0.807612 0.234957
H59   H     H_    0.447378 0.230254 0.834145 0.273166
H60   H     H_    0.213497 0.427200 0.945410 0.235459
H61   H     H_    0.422042 0.158250 0.785878 0.307646
H62   H     H_    0.395621 0.223485 0.717001 0.247389
H63   H     H_    0.559456 0.704803 0.391728 0.151473
H64   H     H_    0.501611 0.718080 0.386307 0.016761
H65   H     H_    0.562142 0.811320 0.354111 0.262854
H66   H     H_    0.505277 0.825947 0.353974 0.203505
H67   H     H_    0.553143 0.793460 0.513857 0.244896
H68   H     H_    0.585568 0.853570 0.499179 0.299320
H69   H     H_    0.610179 0.779182 0.513874 0.283874
H70   H     H_    0.462849 0.461810 0.076194 0.168588
H71   H     H_    0.726534 0.714660 0.815247 0.244685
H72   H     H_    0.403671 0.434301 0.981249 0.031942
H73   H     H_    0.512483 0.386414 0.046956 0.216601
H74   H     H_    0.451841 0.363987 0.948019 0.245792
H75   H     H_    0.437312 0.467088 0.887855 0.259410
H76   H     H_    0.497790 0.436747 0.913270 0.303365
H77   H     H_    0.497889 0.490055 0.987406 0.275660
H78   H     H_    0.459663 0.696593 0.569048 0.120324
H79   H     H_    0.517357 0.728744 0.588149 0.032649
H80   H     H_    0.425122 0.799679 0.562807 0.274274
H81   H     H_    0.481231 0.829723 0.571663 0.222490
H82   H     H_    0.285237 0.901128 0.967275 0.233045
H83   H     H_    0.456373 0.777771 0.430989 0.235632
H84   H     H_    0.404621 0.824701 0.413080 0.302898
H85   H     H_    0.400676 0.745756 0.422357 0.288926
H86   H     H_    0.056317 0.033792 0.880722 0.167941
H87   H     H_    0.118658 0.019276 0.903049 0.083896
H88   H     H_    0.094123 0.043334 0.043928 0.233107
H89   H     H_    0.157877 0.029458 0.068667 0.225694
H90   H     H_    0.150197 0.119235 0.981353 0.294820
H91   H     H_    0.141856 0.137350 0.069434 0.277760
H92   H     H_    0.085976 0.133348 0.955449 0.280811
H93   H     H_    0.742706 0.091015 0.940853 0.226977
H94   H     H_    0.994583 0.220635 0.347902 0.116682
H95   H     H_    0.931211 0.252583 0.278333 0.080222
H96   H     H_    0.031101 0.301234 0.303535 0.267875
H97   H     H_    0.967598 0.334027 0.235329 0.243685
H98   H     H_    0.964977 0.350364 0.367650 0.250713
H99   H     H_    0.022798 0.382625 0.385279 0.300944
H100  H     H_    0.027018 0.313494 0.438759 0.272282
H101  H     H_    0.998339 0.924510 0.112906 0.175649
H102  H     H_    0.934025 0.925148 0.015950 0.040086
H103  H     H_    0.997640 0.811720 0.055072 0.278397
H104  H     H_    0.712824 0.931423 0.937955 0.242625
H105  H     H_    0.950053 0.845751 0.949759 0.244220
H106  H     H_    0.013777 0.925756 0.980703 0.281011
H107  H     H_    0.038429 0.852802 0.982651 0.288347
H108  H     H_    0.060843 0.890410 0.085865 0.302739
H109  H     H_    0.015183 0.215091 0.590143 0.045817
H110  H     H_    0.001841 0.292465 0.596989 0.114290
H111  H     H_    0.924509 0.191017 0.546983 0.201830
H112  H     H_    0.912010 0.268989 0.543810 0.228815
H113  H     H_    0.931178 0.281971 0.427382 0.284405
H114  H     H_    0.878976 0.230691 0.392160 0.311780
H115  H     H_    0.227762 0.209068 0.826159 0.252295
H116  H     H_    0.942415 0.203032 0.430062 0.237766
H117  H     H_    0.547200 0.510087 0.285479 0.193774
H118  H     H_    0.617278 0.506887 0.353066 0.193066
H119  H     H_    0.546121 0.566580 0.170019 0.231036
H120  H     H_    0.615610 0.575632 0.239986 0.232283
H121  H     H_    0.628674 0.467871 0.236032 0.326362
H122  H     H_    0.587667 0.496461 0.124227 0.265422
H123  H     H_    0.559493 0.455635 0.172458 0.277846
H124  H     H_    0.430220 0.391104 0.766051 0.157576
H125  H     H_    0.389880 0.352166 0.665883 0.056139
H126  H     H_    0.690397 0.319715 0.621878 0.237431
H127  H     H_    0.364205 0.462202 0.735747 0.195004
H128  H     H_    0.321400 0.437532 0.623223 0.269085
H129  H     H_    0.315028 0.337964 0.678409 0.267573
H130  H     H_    0.295489 0.397344 0.719994 0.280217
H131  H     H_    0.358453 0.363530 0.792360 0.280609
H132  H     H_    0.402998 0.558214 0.755225 0.115369
H133  H     H_    0.349448 0.563789 0.646113 0.067302
H134  H     H_    0.400624 0.671841 0.663138 0.252186
H135  H     H_    0.351977 0.663675 0.685894 0.167068
H136  H     H_    0.418919 0.647172 0.845951 0.212434
N1    N     N_R   0.532970 0.559900 0.665210 -0.164511
N2    N     N_R   0.402100 0.440070 0.454470 -0.187435
N3    N     N_R   0.402100 0.559930 0.454470 -0.189994
N4    N     N_R   0.597900 0.440070 0.545530 -0.174206
N5    N     N_R   0.097900 0.059930 0.545530 -0.174326
N6    N     N_R   0.902100 0.940070 0.454470 -0.147773
N7    N     N_R   0.902100 0.059930 0.454470 -0.166174
N8    N     N_R   0.097900 0.940070 0.545530 -0.152510
N9    N     N_R   0.567170 0.559950 0.454460 -0.171159
N10   N     N_R   0.432830 0.440050 0.545540 -0.148010
N11   N     N_R   0.432830 0.559950 0.545540 -0.160159
N12   N     N_R   0.467030 0.440100 0.334790 -0.172319
N13   N     N_R   0.567170 0.440050 0.454460 -0.157520
N14   N     N_R   0.067170 0.059950 0.454460 -0.162781
N15   N     N_R   0.932830 0.940050 0.545540 -0.154469
N16   N     N_R   0.932830 0.059950 0.545540 -0.165719
N17   N     N_R   0.067170 0.940050 0.454460 -0.145041
N18   N     N_R   0.421470 0.559970 0.334770 -0.174517
N19   N     N_R   0.578530 0.440030 0.665230 -0.157837
N20   N     N_R   0.578530 0.559970 0.665230 -0.164476
N21   N     N_R   0.421470 0.440030 0.334770 -0.180045
N22   N     N_R   0.921470 0.059970 0.334770 -0.184502
N23   N     N_R   0.467030 0.559900 0.334790 -0.180026
N24   N     N_R   0.078530 0.940030 0.665230 -0.200683
N25   N     N_R   0.078530 0.059970 0.665230 -0.169956
N26   N     N_R   0.921470 0.940030 0.334770 -0.199020
N27   N     N_R   0.532970 0.440100 0.665210 -0.154388
N28   N     N_R   0.032970 0.059900 0.665210 -0.187266
N29   N     N_R   0.967030 0.940100 0.334790 -0.188266
N30   N     N_R   0.967030 0.059900 0.334790 -0.185733
N31   N     N_R   0.032970 0.940100 0.665210 -0.182221
N32   N     N_R   0.597900 0.559930 0.545530 -0.181190
Ni1   Ni    Ni4+2 0.483030 0.500000 0.604430 0.276037
Ni2   Ni    Ni4+2 0.516970 0.500000 0.395570 0.197967
Ni3   Ni    Ni4+2 0.983030 0.000000 0.604430 0.187768
Ni4   Ni    Ni4+2 0.016970 0.000000 0.395570 0.218150
Ni5   Ni    Ni4+2 0.587400 0.500000 0.604430 0.321557
Ni6   Ni    Ni4+2 0.412600 0.500000 0.395570 0.315926
Ni7   Ni    Ni4+2 0.087400 0.000000 0.604430 0.315748
Ni8   Ni    Ni4+2 0.912600 0.000000 0.395570 0.324755
O1    O     O_3   0.512371 0.252238 0.690166 -0.585276
O2    O     O_3   0.415310 0.437465 0.656994 -0.572457
O3    O     O_3   0.421800 0.562534 0.664568 -0.535983
O4    O     O_3   0.577082 0.400388 0.341094 -0.597901
O5    O     O_3   0.081159 0.083645 0.339393 -0.572759
O6    O     O_3   0.942217 0.877700 0.661313 -0.595446
O7    O     O_3   0.913800 0.078720 0.656378 -0.565831
O8    O     O_3   0.057312 0.877879 0.338319 -0.626076
O9    O     O_3   0.497053 0.723252 0.265439 -0.523258
O10   O     O_3   0.447344 0.376335 0.094261 -0.579734
O11   O     O_3   0.502618 0.739661 0.689160 -0.554388
O12   O     O_3   0.086242 0.954038 0.942479 -0.576181
O13   O     O_3   0.965626 0.215441 0.214643 -0.550031
O14   O     O_3   0.952877 0.861431 0.117045 -0.605209
O15   O     O_3   0.004591 0.236308 0.690875 -0.542955
O16   O     O_3   0.582805 0.589009 0.342323 -0.588841

loop_
_geom_bond_atom_site_label_1
_geom_bond_atom_site_label_2
_ccdc_geom_bond_type
C34   N9    A    
C117  H101  S    
C7    C29   A    
C132  H3    S    
C133  H6    S    
C73   C82   A    
C160  C222  A    
C74   C83   A    
N7    N16   A    
C66   C85   S    
C114  C115  S    
C114  H94   S    
C41   C67   A    
C169  F44   S    
C192  F15   S    
C175  F51   S    
C143  H28   S    
C14   C21   A    
C35   C124  A    
C181  C207  A    
C61   C82   S    
C54   C156  A    
C122  H113  S    
C10   C215  A    
C106  C107  S    
C181  C198  A    
C143  C144  S    
N7    Ni8   S    
C145  H32   S    
C50   N25   A    
N1    Ni1   S    
C2    C90   A    
C110  C111  S    
C147  H36   S    
C44   N19   A    
C204  F2    S    
C11   C15   A    
C105  H75   S    
C28   F55   S    
C34   O16   S    
C1    F1    S    
C31   C231  A    
C66   C227  A    
C203  O14   S    
C19   H60   S    
C125  H119  S    
C208  C217  A    
C223  N2    A    
C120  H110  S    
C11   C216  A    
C47   C53   A    
C187  C231  A    
C75   C157  A    
C39   C65   A    
C4    C191  A    
C75   H43   S    
C1    N1    A    
C36   C62   A    
C214  C231  A    
C131  H135  S    
C104  C105  S    
C37   C63   A    
C38   C64   A    
C130  O3    S    
C68   C95   A    
C150  C159  A    
C104  H73   S    
C183  C201  A    
C13   C162  A    
C140  C141  S    
C90   C152  A    
C47   N21   A    
C57   C166  A    
C212  C220  A    
N29   Ni4   S    
C34   C61   A    
C82   C91   A    
C215  C232  A    
C113  C146  A    
C59   C182  S    
N16   Ni3   S    
C106  H79   S    
C25   H115  S    
C139  H18   S    
C186  C195  A    
C43   C54   A    
C71   C152  A    
C114  O13   S    
C177  C204  A    
N5    Ni7   S    
C103  O10   S    
C49   C60   A    
C100  H65   S    
C137  H12   S    
C166  C171  A    
C77   C159  A    
C62   C81   S    
C205  C214  A    
N24   N31   A    
C70   H126  S    
N25   N28   A    
N6    N15   A    
C96   O1    S    
C137  O5    S    
C79   C222  A    
C21   H82   S    
C177  C195  A    
C106  O11   S    
C200  F62   S    
C182  C199  A    
C144  C145  S    
C54   C177  S    
C102  H68   S    
C186  C230  A    
C167  N27   A    
C96   H55   S    
C160  H46   S    
C116  H99   S    
C99   H64   S    
C167  F34   S    
C80   C88   A    
C10   C16   A    
C27   F54   S    
C138  H15   S    
C44   C55   A    
C105  H77   S    
N12   N21   A    
C120  O15   S    
C207  C216  A    
C130  C131  S    
C182  C208  A    
C84   C93   A    
C56   C184  S    
N1    N20   A    
C170  F46   S    
C212  F7    S    
C86   C95   A    
C210  C219  A    
C136  H10   S    
C88   F37   S    
C112  F12   S    
C221  F18   S    
C225  F21   S    
C14   C218  A    
C188  F11   S    
C165  H52   S    
N26   Ni8   S    
C211  F63   S    
C76   C85   A    
C40   O6    S    
C78   C87   A    
C32   C232  A    
C135  C157  A    
C46   C165  A    
C160  C173  A    
C147  C148  S    
C38   N13   A    
C128  C129  S    
C97   C98   S    
C207  F3    S    
C56   C178  A    
C99   O9    S    
C197  O11   S    
C166  H53   S    
C209  F5    S    
C178  N28   A    
C31   F59   S    
C23   H104  S    
C15   C25   A    
C173  F49   S    
C37   O3    S    
C108  H83   S    
N8    N17   A    
C12   C22   A    
C149  H42   S    
C206  F4    S    
C200  N30   A    
C137  H14   S    
C5    C27   A    
C122  H116  S    
C6    C28   A    
C74   C155  A    
C97   H57   S    
C107  C108  S    
C101  C153  A    
C98   H61   S    
C229  F26   S    
C50   F33   S    
N6    Ni8   S    
C40   N15   A    
C226  N5    A    
C187  F10   S    
C64   C225  A    
C1    C52   A    
C49   F32   S    
C72   H13   S    
C196  O1    S    
C36   N10   A    
C63   C80   S    
C17   H1    S    
C185  C212  A    
C89   F38   S    
C111  H92   S    
C26   F53   S    
C10   C20   A    
C128  H128  S    
C39   O5    S    
N8    Ni7   S    
C162  C175  A    
C45   C52   A    
C126  H122  S    
C50   C56   A    
C141  H22   S    
C51   F35   S    
C201  O12   S    
C142  H27   S    
C93   F41   S    
C69   C229  A    
C44   F28   S    
C45   F29   S    
C59   C200  A    
C7    C194  A    
C145  H33   S    
C19   C28   A    
C43   N18   A    
C139  H19   S    
C7    C220  A    
C68   C168  A    
C155  C174  A    
C129  H129  S    
C16   C23   A    
C57   C94   A    
C143  O7    S    
C134  H7    S    
C15   C219  A    
C117  O14   S    
C144  H30   S    
C120  C121  S    
C48   C59   A    
C158  C176  A    
C191  F14   S    
C132  H4    S    
C133  H5    S    
C109  H87   S    
C70   C151  A    
C114  H95   S    
C121  H112  S    
C227  F24   S    
C146  C158  A    
C108  H85   S    
C87   F36   S    
C48   F31   S    
C176  F52   S    
C98   H62   S    
C117  C118  S    
C122  H114  S    
N3    Ni6   S    
C193  F16   S    
C154  C171  A    
C16   C220  A    
C116  H98   S    
C9    C12   A    
C68   C150  A    
C74   H35   S    
C224  F20   S    
N2    N10   A    
C38   O4    S    
C124  C155  A    
N15   Ni3   S    
C39   N14   A    
C130  H132  S    
C148  H39   S    
C119  H108  S    
C13   C101  A    
C25   C33   A    
C103  H72   S    
C206  C215  A    
C187  C196  A    
N22   N30   A    
C111  H90   S    
C55   C167  A    
C113  C154  A    
C127  H125  S    
N22   Ni8   S    
C179  C205  A    
C161  H47   S    
C171  F47   S    
C65   C86   S    
C24   C113  A    
C140  H21   S    
C11   C19   A    
C41   O7    S    
C104  H74   S    
C149  H40   S    
N4    Ni5   S    
C142  H25   S    
C92   F40   S    
C123  C125  S    
C3    C33   A    
C163  H50   S    
C101  C150  A    
N24   Ni7   S    
C95   F43   S    
N14   Ni4   S    
C225  N4    A    
C41   N16   A    
C46   C135  A    
C139  H17   S    
C18   H49   S    
N12   Ni2   S    
C129  H131  S    
N11   Ni1   S    
C73   C154  A    
C112  N12   A    
C192  C201  A    
C123  H118  S    
C100  H66   S    
C72   C81   A    
C156  F23   S    
C81   C89   A    
C35   C92   A    
C60   C183  S    
C117  H102  S    
C199  O13   S    
C40   C66   A    
C57   C146  A    
C58   C185  S    
C140  O6    S    
C229  N8    A    
C55   C179  S    
C179  C196  A    
C47   F30   S    
C174  F50   S    
C123  O16   S    
C8    C213  A    
C3    C190  A    
C208  F6    S    
C147  H37   S    
C102  H69   S    
C3    C216  A    
C8    C18   A    
C193  C202  A    
C198  O10   S    
C127  O2    S    
C110  H88   S    
C116  H100  S    
C49   N24   A    
C99   H63   S    
C127  H124  S    
C138  H16   S    
N5    N14   A    
C105  H76   S    
C5    C218  A    
C125  H120  S    
C51   C58   A    
C205  F64   S    
C189  N29   A    
C121  C122  S    
C103  H70   S    
C125  C126  S    
C24   C163  A    
C115  H96   S    
C209  C218  A    
C127  C128  S    
C29   F57   S    
C12   C217  A    
C190  C198  A    
C110  H89   S    
C223  F19   S    
C165  C170  A    
C72   C153  A    
C90   C124  A    
N20   Ni5   S    
C94   F42   S    
C186  F9    S    
C4    C26   A    
C184  C210  A    
C9    C214  A    
C79   C135  A    
C21   C30   A    
C35   C164  A    
C51   N26   A    
N4    N13   A    
C23   C32   A    
C185  C203  A    
C45   N20   A    
C77   H45   S    
C162  H48   S    
C109  C110  S    
C106  H78   S    
C152  C169  A    
C178  F45   S    
C188  C197  A    
C108  H84   S    
C42   O8    S    
C149  H41   S    
C65   C226  A    
C213  C230  A    
C75   C84   A    
C60   C211  A    
C61   C221  A    
C138  C139  S    
C147  O8    S    
N30   Ni4   S    
C168  C172  A    
N19   N27   A    
C118  H103  S    
C103  C104  S    
C228  N7    A    
C107  H81   S    
N27   Ni1   S    
C227  N6    A    
C96   H56   S    
C188  C232  A    
C6    C193  A    
N21   Ni6   S    
C115  C116  S    
C157  C173  A    
C42   N17   A    
N32   Ni5   S    
C70   C78   A    
C20   H71   S    
C148  H38   S    
C43   F27   S    
C102  H67   S    
C83   C92   A    
C76   C158  A    
C17   C26   A    
C111  H91   S    
C191  C199  A    
C91   F39   S    
N13   Ni2   S    
C156  N23   A    
N3    N11   A    
C126  H123  S    
C140  H20   S    
C107  H80   S    
C153  C172  A    
C36   O2    S    
C118  C119  S    
C180  C197  A    
C136  H9    S    
C118  H105  S    
N18   N23   A    
N26   N29   A    
C2    C88   A    
C131  H134  S    
C67   C84   S    
C159  C175  A    
N31   Ni3   S    
N9    N32   A    
C164  C169  A    
C37   N11   A    
C134  H8    S    
C180  C206  A    
C163  C176  A    
C2    C161  A    
C71   C80   A    
C20   C29   A    
C184  C202  A    
C22   C31   A    
N2    Ni6   S    
C87   C222  A    
C109  H86   S    
C148  C149  S    
C98   H59   S    
C30   F58   S    
C228  F25   S    
N17   Ni4   S    
C134  C136  S    
C204  C213  A    
C42   C69   A    
C202  O15   S    
C119  H106  S    
C210  F8    S    
C151  C170  A    
C52   C180  S    
C69   C83   S    
C53   C181  S    
N28   Ni3   S    
C85   C94   A    
C99   C100  S    
N25   Ni7   S    
C96   C97   S    
C76   H44   S    
C58   C189  A    
C100  C102  S    
C97   H58   S    
C120  H109  S    
C194  F17   S    
C62   C223  A    
C144  H31   S    
C172  F48   S    
C32   F60   S    
C53   C112  A    
C9    C17   A    
C77   C86   A    
C224  N3    A    
C143  H29   S    
N10   Ni1   S    
C73   H24   S    
C119  H107  S    
C24   C91   A    
C64   C78   S    
C79   C151  A    
C132  H136  S    
C190  F13   S    
C8    C14   A    
C13   C89   A    
C221  N32   A    
C63   C224  A    
C18   C27   A    
C115  H97   S    
C5    C192  A    
C161  C174  A    
N18   Ni6   S    
C128  H127  S    
C183  C209  A    
C126  H121  S    
C137  C138  S    
C141  H23   S    
C30   C230  A    
N23   Ni2   S    
C142  H26   S    
C71   H2    S    
C141  C142  S    
C136  H11   S    
C133  C134  S    
C46   C93   A    
C67   C228  A    
C194  C203  A    
C164  H51   S    
C109  O12   S    
C130  H133  S    
C145  H34   S    
N19   Ni5   S    
C133  O4    S    
C195  O9    S    
C22   H93   S    
C6    C219  A    
C121  H111  S    
C129  H130  S    
C226  F22   S    
C4    C217  A    
C189  F56   S    
C168  H54   S    
N9    Ni2   S    
C211  N31   A    
C123  H117  S    
C33   F61   S    
C131  C132  S    
C48   N22   A    
