data_mof_unit_1087.cif
_audit_creation_date              2012-12-10T18:12:13-0500
_audit_creation_method            fapswitch 2.2
_symmetry_space_group_name_H-M    P1
_symmetry_Int_Tables_number       1
_space_group_crystal_system       triclinic
_cell_length_a                    18.298733
_cell_length_b                    18.282752
_cell_length_c                    43.066325
_cell_angle_alpha                 90.102334
_cell_angle_beta                  89.895754
_cell_angle_gamma                 90.070018
_cell_volume                      14407.8330648

loop_
_atom_site_label
_atom_site_type_symbol
_atom_type_description
_atom_site_fract_x
_atom_site_fract_y
_atom_site_fract_z
_atom_type_partial_charge
C1    C     C_R   0.996845 0.433999 0.884763 -0.195663
C2    C     C_R   0.505257 0.934465 0.615019 -0.194411
C3    C     C_R   0.222886 0.723199 0.278648 0.341191
C4    C     C_R   0.713284 0.766225 0.722602 0.298034
C5    C     C_R   0.278779 0.224866 0.279113 0.346762
C6    C     C_R   0.223882 0.722252 0.721472 0.347745
C7    C     C_R   0.776360 0.277568 0.278539 0.349542
C8    C     C_R   0.277282 0.776808 0.278554 0.351165
C9    C     C_R   0.721751 0.224118 0.721712 0.362321
C10   C     C_R   0.774506 0.720719 0.278414 0.351040
C11   C     C_R   0.226000 0.279766 0.721598 0.348533
C12   C     C_R   0.721854 0.224105 0.278445 0.351578
C13   C     C_R   0.066217 0.501628 0.384693 -0.198926
C14   C     C_R   0.278558 0.775526 0.721554 0.346364
C15   C     C_R   0.225189 0.279263 0.278977 0.341539
C16   C     C_R   0.770662 0.715945 0.722477 0.307330
C17   C     C_R   0.779121 0.725038 0.221511 0.349081
C18   C     C_R   0.221008 0.275089 0.778501 0.350208
C19   C     C_R   0.277049 0.776878 0.221570 0.331063
C20   C     C_R   0.722887 0.223197 0.778648 0.341193
C21   C     C_R   0.213281 0.266221 0.222603 0.298041
C22   C     C_R   0.778777 0.724865 0.779113 0.346762
C23   C     C_R   0.723882 0.222253 0.221472 0.347745
C24   C     C_R   0.934543 0.491314 0.615276 -0.194422
C25   C     C_R   0.276359 0.777568 0.778539 0.349541
C26   C     C_R   0.777284 0.276805 0.778554 0.351161
C27   C     C_R   0.221752 0.724117 0.221712 0.362323
C28   C     C_R   0.274507 0.220719 0.778414 0.351038
C29   C     C_R   0.726001 0.779767 0.221598 0.348533
C30   C     C_R   0.221853 0.724106 0.778445 0.351572
C31   C     C_R   0.778558 0.275526 0.221554 0.346361
C32   C     C_R   0.725188 0.779262 0.778977 0.341537
C33   C     C_R   0.270660 0.215943 0.222477 0.307327
C34   C     C_R   0.196600 0.304374 0.750063 -0.393583
C35   C     C_R   0.500710 0.066738 0.384718 -0.198701
C36   C     C_R   0.803523 0.695753 0.249942 -0.393400
C37   C     C_R   0.695391 0.196850 0.750170 -0.382010
C38   C     C_R   0.304113 0.803688 0.250048 -0.385777
C39   C     C_R   0.802438 0.694419 0.750701 -0.370263
C40   C     C_R   0.193918 0.301297 0.250560 -0.370861
C41   C     C_R   0.304376 0.803438 0.750060 -0.393167
C42   C     C_R   0.695782 0.196455 0.249944 -0.392379
C43   C     C_R   0.195391 0.696850 0.250169 -0.382010
C44   C     C_R   0.804113 0.303688 0.750048 -0.385779
C45   C     C_R   0.696600 0.804374 0.250063 -0.393583
C46   C     C_R   0.490586 0.066372 0.615478 -0.197127
C47   C     C_R   0.303523 0.195753 0.749942 -0.393399
C48   C     C_R   0.804377 0.303438 0.250059 -0.393166
C49   C     C_R   0.195782 0.696455 0.749945 -0.392378
C50   C     C_R   0.302438 0.194419 0.250701 -0.370265
C51   C     C_R   0.693919 0.801297 0.750560 -0.370856
C52   C     C_3   0.136554 0.507610 0.965313 -0.411457
C53   C     C_3   0.165725 0.430573 0.958379 -0.329825
C54   C     C_3   0.236271 0.433868 0.939478 -0.891973
C55   C     C_3   0.857609 0.495577 0.034677 -0.410746
C56   C     C_3   0.835031 0.416471 0.041868 -0.329846
C57   C     C_R   0.933562 0.499931 0.384796 -0.197519
C58   C     C_3   0.763591 0.414072 0.060175 -0.894763
C59   C     C_3   0.488419 0.140162 0.965371 -0.411828
C60   C     C_3   0.564064 0.172096 0.957886 -0.329382
C61   C     C_3   0.557651 0.241758 0.938621 -0.891864
C62   C     C_3   0.511282 0.862113 0.034583 -0.411465
C63   C     C_3   0.591225 0.842559 0.041413 -0.329068
C64   C     C_3   0.596667 0.770487 0.059066 -0.894680
C65   C     C_3   0.858049 0.494015 0.965257 -0.412023
C66   C     C_3   0.828910 0.570772 0.957921 -0.328901
C67   C     C_3   0.757570 0.566709 0.939701 -0.893771
C68   C     C_R   0.065851 0.510426 0.615292 -0.198236
C69   C     C_3   0.136122 0.508695 0.034726 -0.411982
C70   C     C_3   0.157826 0.588322 0.041438 -0.330454
C71   C     C_3   0.227974 0.592233 0.060481 -0.887416
C72   C     C_3   0.511761 0.862162 0.965167 -0.411919
C73   C     C_3   0.436053 0.830177 0.957913 -0.329301
C74   C     C_3   0.442282 0.760566 0.938489 -0.892177
C75   C     C_3   0.489832 0.140333 0.034791 -0.409981
C76   C     C_3   0.410027 0.160069 0.041961 -0.331704
C77   C     C_3   0.405034 0.231899 0.059927 -0.893567
C78   C     C_3   0.636544 0.007558 0.465312 -0.411494
C79   C     C_R   0.997521 0.500706 0.933256 0.156491
C80   C     C_3   0.665685 0.930515 0.458379 -0.329944
C81   C     C_3   0.736228 0.933782 0.439479 -0.892120
C82   C     C_3   0.357621 0.995638 0.534678 -0.410784
C83   C     C_3   0.335013 0.916550 0.541875 -0.329951
C84   C     C_3   0.263590 0.914187 0.560190 -0.894887
C85   C     C_3   0.988435 0.640167 0.465371 -0.411829
C86   C     C_3   0.064083 0.672092 0.457885 -0.329392
C87   C     C_3   0.057677 0.741754 0.438620 -0.891866
C88   C     C_3   0.011254 0.362116 0.534583 -0.411466
C89   C     C_3   0.091193 0.342549 0.541416 -0.329075
C90   C     C_R   0.996791 0.501007 0.066732 0.157059
C91   C     C_3   0.096619 0.270477 0.559069 -0.894679
C92   C     C_3   0.358058 0.994058 0.465258 -0.412058
C93   C     C_3   0.328944 0.070817 0.457919 -0.329016
C94   C     C_3   0.257606 0.066775 0.439704 -0.893914
C95   C     C_3   0.636117 0.008641 0.534725 -0.412024
C96   C     C_3   0.657850 0.088254 0.541438 -0.330535
C97   C     C_3   0.727988 0.092136 0.560484 -0.887513
C98   C     C_3   0.011742 0.362166 0.465167 -0.411920
C99   C     C_3   0.936031 0.330190 0.457912 -0.329311
C100  C     C_3   0.942253 0.260577 0.438488 -0.892180
C101  C     C_R   0.499929 0.001123 0.933262 0.157043
C102  C     C_3   0.989856 0.640339 0.534791 -0.409983
C103  C     C_3   0.910055 0.660087 0.541964 -0.331710
C104  C     C_3   0.905078 0.731913 0.559933 -0.893568
C105  C     C_3   0.280930 0.133924 0.684664 0.147386
C106  C     C_3   0.282617 0.127219 0.649457 -0.821059
C107  C     C_3   0.718536 0.866114 0.315415 0.147390
C108  C     C_3   0.717248 0.872452 0.350641 -0.813775
C109  C     C_3   0.870202 0.273182 0.686013 0.137402
C110  C     C_3   0.887445 0.287939 0.652032 -0.828101
C111  C     C_3   0.129671 0.722040 0.314529 0.143472
C112  C     C_R   0.005276 0.434463 0.115018 -0.194411
C113  C     C_R   0.500344 0.001214 0.066756 0.156364
C114  C     C_3   0.120912 0.722446 0.349668 -0.814325
C115  C     C_3   0.632702 0.729865 0.685382 0.186694
C116  C     C_3   0.582948 0.758528 0.659964 -0.816782
C117  C     C_3   0.283638 0.136399 0.316825 0.142502
C118  C     C_3   0.289815 0.130975 0.351965 -0.800325
C119  C     C_3   0.131176 0.721529 0.685516 0.148175
C120  C     C_3   0.122457 0.720690 0.650397 -0.822638
C121  C     C_3   0.869268 0.278756 0.314445 0.144405
C122  C     C_3   0.878061 0.279267 0.349569 -0.815690
C123  C     C_3   0.273069 0.865005 0.316118 0.143197
C124  C     C_R   0.497520 0.000705 0.433256 0.156470
C125  C     C_3   0.304719 0.888495 0.347206 -0.811353
C126  C     C_3   0.732719 0.141514 0.681755 0.116663
C127  C     C_3   0.681324 0.086261 0.666848 -0.786736
C128  C     C_3   0.860031 0.722361 0.317000 0.147759
C129  C     C_3   0.880060 0.689987 0.348350 -0.808086
C130  C     C_3   0.141955 0.280192 0.682380 0.149034
C131  C     C_3   0.124344 0.312893 0.650817 -0.798420
C132  C     C_3   0.725013 0.136821 0.316297 0.145632
C133  C     C_3   0.692999 0.114540 0.347492 -0.810497
C134  C     C_3   0.277053 0.862049 0.683317 0.148282
C135  C     C_R   0.496796 0.001008 0.566732 0.157048
C136  C     C_3   0.309397 0.882810 0.651981 -0.811497
C137  C     C_3   0.141099 0.281306 0.318182 0.141571
C138  C     C_3   0.123499 0.314461 0.349719 -0.798761
C139  C     C_3   0.849533 0.732584 0.682262 0.149329
C140  C     C_3   0.880331 0.697948 0.652883 -0.829131
C141  C     C_3   0.780930 0.633924 0.184665 0.147384
C142  C     C_3   0.782615 0.627220 0.149457 -0.821062
C143  C     C_3   0.218538 0.366115 0.815415 0.147381
C144  C     C_3   0.217250 0.372454 0.850641 -0.813768
C145  C     C_3   0.370206 0.773177 0.186014 0.137406
C146  C     C_R   0.999928 0.501128 0.433262 0.157043
C147  C     C_3   0.387453 0.787934 0.152033 -0.828101
C148  C     C_3   0.629676 0.222039 0.814530 0.143470
C149  C     C_3   0.620917 0.222440 0.849669 -0.814316
C150  C     C_3   0.132696 0.229854 0.185385 0.186695
C151  C     C_3   0.082930 0.258515 0.159971 -0.816777
C152  C     C_3   0.783633 0.636394 0.816824 0.142500
C153  C     C_3   0.789807 0.630968 0.851964 -0.800325
C154  C     C_3   0.631175 0.221532 0.185516 0.148174
C155  C     C_3   0.622455 0.220693 0.150397 -0.822638
C156  C     C_3   0.369265 0.778756 0.814446 0.144404
C157  C     C_R   0.000343 0.501218 0.566756 0.156372
C158  C     C_3   0.378057 0.779271 0.849570 -0.815683
C159  C     C_3   0.773080 0.364999 0.816121 0.143216
C160  C     C_3   0.804729 0.388477 0.847210 -0.811333
C161  C     C_3   0.232720 0.641511 0.181756 0.116663
C162  C     C_3   0.181325 0.586259 0.166848 -0.786721
C163  C     C_3   0.360032 0.222360 0.817000 0.147761
C164  C     C_3   0.380060 0.189986 0.848350 -0.808086
C165  C     C_3   0.641958 0.780194 0.182379 0.149035
C166  C     C_3   0.624347 0.812899 0.150817 -0.798423
C167  C     C_3   0.225005 0.636825 0.816299 0.145645
C168  C     C_R   0.995651 0.434299 0.917072 -0.200178
C169  C     C_3   0.192992 0.614551 0.847495 -0.810485
C170  C     C_3   0.777058 0.362048 0.183316 0.148292
C171  C     C_3   0.809400 0.382804 0.151979 -0.811494
C172  C     C_3   0.641096 0.781304 0.818182 0.141571
C173  C     C_3   0.623495 0.814458 0.849718 -0.798762
C174  C     C_3   0.349527 0.232579 0.182261 0.149329
C175  C     C_3   0.380323 0.197941 0.152882 -0.829126
C176  C     C_R   0.004844 0.434947 0.082712 -0.201187
C177  C     C_R   0.566175 0.001459 0.916994 -0.199639
C178  C     C_R   0.434763 0.991173 0.082964 -0.201296
C179  C     C_R   0.000156 0.566888 0.917024 -0.201277
C180  C     C_R   0.566218 0.001632 0.884693 -0.198927
C181  C     C_R   0.989320 0.566659 0.083170 -0.203821
C182  C     C_R   0.433646 0.000638 0.917109 -0.199690
C183  C     C_R   0.565823 0.011101 0.082975 -0.200915
C184  C     C_R   0.495630 0.934303 0.417071 -0.200177
C185  C     C_R   0.504825 0.934949 0.582712 -0.201184
C186  C     C_R   0.066174 0.501456 0.416995 -0.199641
C187  C     C_R   0.934761 0.491184 0.582964 -0.201302
C188  C     C_R   0.500174 0.066884 0.417024 -0.201288
C189  C     C_R   0.489350 0.066658 0.583170 -0.203819
C190  C     C_R   0.933646 0.500649 0.417109 -0.199692
C191  C     C_R   0.434544 0.991304 0.115276 -0.194426
C192  C     C_R   0.065823 0.511097 0.582975 -0.200920
C193  C     C_R   0.999244 0.500259 0.868323 -0.004664
C194  C     C_R   0.998559 0.500220 0.131670 0.003162
C195  C     C_R   0.499889 0.000512 0.868322 -0.004216
C196  C     C_R   0.500166 0.000579 0.131695 -0.005786
C197  C     C_R   0.499244 0.000259 0.368323 -0.004670
C198  C     C_R   0.498562 0.000220 0.631670 0.003152
C199  C     C_R   0.999889 0.500514 0.368322 -0.004215
C200  C     C_R   0.000166 0.500580 0.631695 -0.005786
C201  C     C_R   0.064745 0.504584 0.983553 0.059001
C202  C     C_R   0.000693 0.566741 0.884718 -0.198706
C203  C     C_R   0.929406 0.498396 0.016438 0.058013
C204  C     C_R   0.494504 0.068637 0.983596 0.058493
C205  C     C_R   0.505563 0.933716 0.016410 0.058717
C206  C     C_R   0.929616 0.497709 0.983524 0.058458
C207  C     C_R   0.064564 0.504553 0.016462 0.058945
C208  C     C_R   0.505824 0.933722 0.983497 0.058661
C209  C     C_R   0.495178 0.068702 0.016509 0.058488
C210  C     C_R   0.564741 0.004558 0.483553 0.059006
C211  C     C_R   0.429413 0.998422 0.516438 0.058012
C212  C     C_R   0.994513 0.568642 0.483596 0.058493
C213  C     C_R   0.990557 0.566373 0.115478 -0.197124
C214  C     C_R   0.005550 0.433720 0.516410 0.058717
C215  C     C_R   0.429621 0.997732 0.483525 0.058459
C216  C     C_R   0.564562 0.004528 0.516461 0.058945
C217  C     C_R   0.005812 0.433726 0.483497 0.058661
C218  C     C_R   0.995188 0.568707 0.516509 0.058487
C219  C     C_R   0.496898 0.001436 0.532550 -0.040751
C220  C     C_R   0.497272 0.000956 0.467438 -0.040986
C221  C     C_R   0.000425 0.501226 0.532567 -0.040743
C222  C     C_R   0.000018 0.501166 0.467448 -0.041459
C223  C     C_R   0.996895 0.501435 0.032550 -0.040779
C224  C     C_R   0.433563 0.999921 0.884796 -0.197521
C225  C     C_R   0.997273 0.500957 0.967438 -0.041022
C226  C     C_R   0.500426 0.001222 0.032567 -0.040745
C227  C     C_R   0.500019 0.001162 0.967448 -0.041462
C228  C     C_R   0.499948 0.000091 0.834248 0.757765
C229  C     C_R   0.500059 0.000103 0.165758 0.757114
C230  C     C_R   0.999913 0.500067 0.834254 0.755612
C231  C     C_R   0.999628 0.499986 0.165742 0.770194
C232  C     C_R   0.999948 0.500091 0.334248 0.757765
C233  C     C_R   0.000059 0.500103 0.665758 0.757115
C234  C     C_R   0.499913 0.000067 0.334254 0.755602
C235  C     C_R   0.565851 0.010432 0.115292 -0.198235
C236  C     C_R   0.499628 0.999986 0.665742 0.770192
C237  C     C_R   0.640034 0.139945 0.749932 0.889068
C238  C     C_R   0.359958 0.860101 0.250084 0.872974
C239  C     C_R   0.859884 0.639827 0.750123 0.878083
C240  C     C_R   0.139867 0.359679 0.249993 0.915787
C241  C     C_R   0.360092 0.859906 0.750006 0.867835
C242  C     C_R   0.639944 0.140074 0.249998 0.867742
C243  C     C_R   0.140142 0.360128 0.750024 0.862411
C244  C     C_R   0.859877 0.639889 0.249976 0.863732
C245  C     C_R   0.640142 0.860128 0.250024 0.862411
C246  C     C_R   0.496825 0.934002 0.384762 -0.195653
C247  C     C_R   0.359877 0.139889 0.749976 0.863733
C248  C     C_R   0.860092 0.359906 0.250006 0.867831
C249  C     C_R   0.139944 0.640074 0.749998 0.867734
C250  C     C_R   0.359884 0.139827 0.250123 0.878079
C251  C     C_R   0.639867 0.859679 0.749993 0.915790
C252  C     C_R   0.140034 0.639945 0.249932 0.889067
C253  C     C_R   0.859958 0.360101 0.750084 0.872961
C254  C     C_R   0.279120 0.225037 0.721511 0.349079
C255  C     C_R   0.721008 0.775088 0.278501 0.350205
C256  C     C_R   0.777047 0.276880 0.721570 0.331068
H1    H     H_    0.995615 0.381995 0.872697 0.175595
H2    H     H_    0.511131 0.882765 0.626889 0.161191
H3    H     H_    0.378010 0.889186 0.555725 0.229984
H4    H     H_    0.361917 0.026854 0.556696 0.209875
H5    H     H_    0.313042 0.023926 0.522183 0.199054
H6    H     H_    0.029468 0.730044 0.416331 0.264516
H7    H     H_    0.026634 0.784062 0.451642 0.258191
H8    H     H_    0.113088 0.763364 0.433408 0.251378
H9    H     H_    0.093973 0.684759 0.479655 0.210938
H10   H     H_    0.097024 0.631854 0.444634 0.230016
H11   H     H_    0.957660 0.631909 0.443491 0.211154
H12   H     H_    0.955248 0.681270 0.477956 0.198577
H13   H     H_    0.118123 0.502403 0.372583 0.174022
H14   H     H_    0.066382 0.274167 0.581403 0.264555
H15   H     H_    0.073635 0.225092 0.544940 0.258579
H16   H     H_    0.154829 0.258279 0.564112 0.250513
H17   H     H_    0.122694 0.337850 0.519444 0.212041
H18   H     H_    0.116927 0.386159 0.555603 0.230599
H19   H     H_    0.980499 0.365262 0.556747 0.210257
H20   H     H_    0.984265 0.316441 0.522159 0.198643
H21   H     H_    0.266044 0.036711 0.417550 0.263582
H22   H     H_    0.214876 0.038572 0.453602 0.258240
H23   H     H_    0.238458 0.122922 0.434281 0.251072
H24   H     H_    0.883167 0.483653 0.627366 0.172860
H25   H     H_    0.319370 0.101889 0.479724 0.211737
H26   H     H_    0.369532 0.101597 0.443945 0.230332
H27   H     H_    0.365201 0.963114 0.443302 0.210312
H28   H     H_    0.315867 0.962153 0.477782 0.199269
H29   H     H_    0.720262 0.064386 0.583191 0.264891
H30   H     H_    0.773678 0.065720 0.547696 0.257489
H31   H     H_    0.742477 0.150238 0.564863 0.250819
H32   H     H_    0.666102 0.118499 0.519374 0.211395
H33   H     H_    0.613770 0.116221 0.554550 0.229712
H34   H     H_    0.631893 0.978335 0.556927 0.211251
H35   H     H_    0.502538 0.118585 0.372622 0.174597
H36   H     H_    0.681121 0.980253 0.522439 0.197537
H37   H     H_    0.970141 0.272370 0.416109 0.264091
H38   H     H_    0.973524 0.218278 0.451304 0.258205
H39   H     H_    0.886797 0.238914 0.433458 0.251423
H40   H     H_    0.906441 0.317447 0.479775 0.210955
H41   H     H_    0.902884 0.370434 0.444867 0.229963
H42   H     H_    0.042273 0.370385 0.443189 0.211245
H43   H     H_    0.045098 0.321104 0.477581 0.198647
H44   H     H_    0.935403 0.727712 0.582178 0.265585
H45   H     H_    0.928225 0.777397 0.545944 0.258706
H46   H     H_    0.484992 0.117825 0.627742 0.174403
H47   H     H_    0.846955 0.744320 0.565169 0.250278
H48   H     H_    0.878363 0.665220 0.520117 0.211818
H49   H     H_    0.884279 0.616381 0.556055 0.229763
H50   H     H_    0.020916 0.637126 0.556825 0.209942
H51   H     H_    0.016757 0.685954 0.522320 0.198480
H52   H     H_    0.223654 0.124523 0.692630 0.079855
H53   H     H_    0.315735 0.089817 0.694335 0.128781
H54   H     H_    0.339610 0.132809 0.640860 0.260447
H55   H     H_    0.261053 0.072964 0.642321 0.189087
H56   H     H_    0.248345 0.170602 0.638880 0.255569
H57   H     H_    0.881666 0.499107 0.372756 0.174673
H58   H     H_    0.683232 0.910021 0.305911 0.129267
H59   H     H_    0.775602 0.876132 0.307320 0.076836
H60   H     H_    0.751469 0.828853 0.361086 0.256845
H61   H     H_    0.739163 0.926524 0.357806 0.186538
H62   H     H_    0.660318 0.867069 0.359360 0.265299
H63   H     H_    0.871162 0.212920 0.689797 0.086954
H64   H     H_    0.914298 0.298301 0.700160 0.119000
H65   H     H_    0.891256 0.347771 0.647955 0.261376
H66   H     H_    0.940365 0.262255 0.645731 0.189854
H67   H     H_    0.843909 0.264697 0.637024 0.252765
H68   H     H_    0.117126 0.518003 0.627401 0.172306
H69   H     H_    0.086744 0.685785 0.304746 0.125570
H70   H     H_    0.119902 0.778666 0.305895 0.078377
H71   H     H_    0.163538 0.757598 0.360387 0.257233
H72   H     H_    0.066294 0.744258 0.355999 0.186541
H73   H     H_    0.126023 0.665961 0.358878 0.264665
H74   H     H_    0.597370 0.710407 0.704855 0.122539
H75   H     H_    0.664012 0.682837 0.675836 0.178673
H76   H     H_    0.616015 0.780188 0.640370 0.244517
H77   H     H_    0.547388 0.713719 0.651276 0.206057
H78   H     H_    0.547866 0.802736 0.669409 0.286286
H79   H     H_    0.993274 0.382924 0.929526 0.131706
H80   H     H_    0.317057 0.091880 0.306506 0.125691
H81   H     H_    0.225422 0.126880 0.310353 0.073297
H82   H     H_    0.257015 0.174824 0.363149 0.255147
H83   H     H_    0.269019 0.077074 0.359861 0.185816
H84   H     H_    0.347833 0.136629 0.359140 0.264165
H85   H     H_    0.122135 0.778605 0.693853 0.082690
H86   H     H_    0.087755 0.686204 0.695521 0.129169
H87   H     H_    0.128199 0.663962 0.641454 0.260280
H88   H     H_    0.067573 0.741647 0.644028 0.191986
H89   H     H_    0.164777 0.755900 0.639482 0.254939
H90   H     H_    0.010994 0.383998 0.070100 0.128796
H91   H     H_    0.912415 0.314520 0.304509 0.126035
H92   H     H_    0.878767 0.221867 0.305976 0.076147
H93   H     H_    0.835654 0.244131 0.360464 0.256626
H94   H     H_    0.932856 0.257979 0.355862 0.186328
H95   H     H_    0.872626 0.335948 0.358620 0.265206
H96   H     H_    0.213247 0.857439 0.319129 0.120841
H97   H     H_    0.282753 0.909850 0.299162 0.092441
H98   H     H_    0.364342 0.898136 0.344876 0.264023
H99   H     H_    0.278168 0.939823 0.355112 0.184263
H100  H     H_    0.295139 0.845282 0.364849 0.257213
H101  H     H_    0.617643 0.001497 0.929382 0.131855
H102  H     H_    0.766101 0.111952 0.699444 0.091728
H103  H     H_    0.769781 0.162487 0.663391 0.163426
H104  H     H_    0.645510 0.113692 0.649640 0.266208
H105  H     H_    0.713472 0.043178 0.654824 0.190496
H106  H     H_    0.647127 0.060005 0.684983 0.243736
H107  H     H_    0.853221 0.782298 0.320034 0.117772
H108  H     H_    0.906215 0.712264 0.300720 0.095483
H109  H     H_    0.888478 0.630146 0.346059 0.266518
H110  H     H_    0.931230 0.715398 0.357033 0.185013
H111  H     H_    0.835598 0.700326 0.365384 0.255498
H112  H     H_    0.011170 0.382762 0.126889 0.161188
H113  H     H_    0.383979 0.983133 0.070523 0.130727
H114  H     H_    0.095035 0.291060 0.698177 0.098734
H115  H     H_    0.147969 0.220137 0.679420 0.117334
H116  H     H_    0.169397 0.301388 0.634202 0.256800
H117  H     H_    0.073097 0.288594 0.641694 0.183360
H118  H     H_    0.117182 0.372967 0.652927 0.269952
H119  H     H_    0.784847 0.144158 0.319271 0.119900
H120  H     H_    0.715235 0.091469 0.299545 0.094626
H121  H     H_    0.633305 0.105385 0.345236 0.264819
H122  H     H_    0.719025 0.063204 0.355584 0.184786
H123  H     H_    0.702880 0.158193 0.364960 0.256875
H124  H     H_    0.002013 0.618432 0.929444 0.132441
H125  H     H_    0.287540 0.907788 0.699793 0.097988
H126  H     H_    0.217101 0.855520 0.680403 0.120950
H127  H     H_    0.297694 0.839352 0.634627 0.257668
H128  H     H_    0.285084 0.934962 0.643866 0.185716
H129  H     H_    0.369439 0.889849 0.654019 0.266637
H130  H     H_    0.146673 0.221230 0.321196 0.113591
H131  H     H_    0.094309 0.292309 0.302415 0.089022
H132  H     H_    0.117142 0.374533 0.347511 0.266748
H133  H     H_    0.071779 0.290940 0.358833 0.184302
H134  H     H_    0.168260 0.302633 0.366346 0.253627
H135  H     H_    0.982610 0.617903 0.070919 0.131724
H136  H     H_    0.895386 0.739991 0.698994 0.104101
H137  H     H_    0.826534 0.787064 0.676162 0.161965
H138  H     H_    0.836256 0.690470 0.635459 0.261515
H139  H     H_    0.923301 0.733845 0.642898 0.189663
H140  H     H_    0.904771 0.643928 0.658335 0.263729
H141  H     H_    0.723654 0.624523 0.192631 0.079853
H142  H     H_    0.815735 0.589817 0.194335 0.128781
H143  H     H_    0.839608 0.632811 0.140860 0.260438
H144  H     H_    0.761051 0.572964 0.142321 0.189088
H145  H     H_    0.748342 0.670602 0.138880 0.255566
H146  H     H_    0.382200 0.000803 0.929590 0.131636
H147  H     H_    0.183234 0.410022 0.805911 0.129264
H148  H     H_    0.275603 0.376133 0.807320 0.076837
H149  H     H_    0.251472 0.328856 0.861086 0.256841
H150  H     H_    0.239165 0.426526 0.857806 0.186541
H151  H     H_    0.160320 0.367071 0.859360 0.265292
H152  H     H_    0.371164 0.712915 0.189798 0.086954
H153  H     H_    0.414301 0.798294 0.200162 0.118995
H154  H     H_    0.391268 0.847767 0.147957 0.261371
H155  H     H_    0.440372 0.762247 0.145733 0.189855
H156  H     H_    0.343917 0.764695 0.137024 0.252766
H157  H     H_    0.616676 0.019340 0.070544 0.131346
H158  H     H_    0.586746 0.185788 0.804747 0.125566
H159  H     H_    0.619909 0.278667 0.805898 0.078379
H160  H     H_    0.663544 0.257588 0.860389 0.257230
H161  H     H_    0.566300 0.244252 0.856001 0.186541
H162  H     H_    0.626027 0.165953 0.858877 0.264662
H163  H     H_    0.097372 0.210392 0.204860 0.122525
H164  H     H_    0.164006 0.182830 0.175836 0.178676
H165  H     H_    0.115988 0.280183 0.140375 0.244508
H166  H     H_    0.047372 0.213704 0.151284 0.206058
H167  H     H_    0.047846 0.302718 0.169419 0.286293
H168  H     H_    0.493237 0.882931 0.429526 0.131708
H169  H     H_    0.817053 0.591876 0.806505 0.125687
H170  H     H_    0.725418 0.626876 0.810350 0.073297
H171  H     H_    0.757005 0.674816 0.863148 0.255144
H172  H     H_    0.769010 0.577065 0.859858 0.185817
H173  H     H_    0.847824 0.636621 0.859140 0.264157
H174  H     H_    0.622136 0.278609 0.193853 0.082692
H175  H     H_    0.587754 0.186208 0.195522 0.129165
H176  H     H_    0.628196 0.163964 0.141454 0.260277
H177  H     H_    0.567571 0.241651 0.144029 0.191987
H178  H     H_    0.664775 0.255903 0.139481 0.254938
H179  H     H_    0.510956 0.884001 0.570100 0.128801
H180  H     H_    0.412413 0.814517 0.804509 0.126031
H181  H     H_    0.378762 0.721866 0.805978 0.076149
H182  H     H_    0.335650 0.744138 0.860465 0.256624
H183  H     H_    0.432853 0.757983 0.855863 0.186329
H184  H     H_    0.372624 0.835954 0.858619 0.265204
H185  H     H_    0.713257 0.357438 0.819129 0.120826
H186  H     H_    0.782771 0.409847 0.799167 0.092442
H187  H     H_    0.864355 0.398108 0.844883 0.264033
H188  H     H_    0.778185 0.439808 0.855117 0.184257
H189  H     H_    0.795138 0.345261 0.864852 0.257203
H190  H     H_    0.117642 0.501489 0.429382 0.131856
H191  H     H_    0.266102 0.611948 0.199444 0.091725
H192  H     H_    0.269784 0.662483 0.163391 0.163421
H193  H     H_    0.145511 0.613692 0.149640 0.266210
H194  H     H_    0.213473 0.543176 0.154824 0.190489
H195  H     H_    0.147125 0.560004 0.184983 0.243734
H196  H     H_    0.353222 0.282298 0.820035 0.117771
H197  H     H_    0.406215 0.212262 0.800720 0.095483
H198  H     H_    0.388477 0.130144 0.846059 0.266522
H199  H     H_    0.431231 0.215396 0.857033 0.185011
H200  H     H_    0.335599 0.200326 0.865384 0.255497
H201  H     H_    0.883976 0.483152 0.570523 0.130727
H202  H     H_    0.595037 0.791058 0.198176 0.098732
H203  H     H_    0.647974 0.720139 0.179418 0.117338
H204  H     H_    0.669400 0.801396 0.134201 0.256801
H205  H     H_    0.573101 0.788599 0.141693 0.183359
H206  H     H_    0.617183 0.872971 0.152928 0.269957
H207  H     H_    0.284840 0.644157 0.819271 0.119888
H208  H     H_    0.215222 0.591471 0.799548 0.094626
H209  H     H_    0.133296 0.605405 0.845240 0.264828
H210  H     H_    0.219011 0.563212 0.855587 0.184780
H211  H     H_    0.202882 0.658205 0.864962 0.256868
H212  H     H_    0.502046 0.118425 0.429444 0.132448
H213  H     H_    0.787549 0.407788 0.199791 0.097989
H214  H     H_    0.717105 0.355523 0.180403 0.120942
H215  H     H_    0.797689 0.339347 0.134626 0.257664
H216  H     H_    0.785092 0.434958 0.143864 0.185711
H217  H     H_    0.869443 0.389836 0.154015 0.266643
H218  H     H_    0.646670 0.721227 0.821195 0.113592
H219  H     H_    0.594307 0.792308 0.802414 0.089021
H220  H     H_    0.617139 0.874530 0.847511 0.266749
H221  H     H_    0.571776 0.790937 0.858832 0.184301
H222  H     H_    0.668256 0.802629 0.866345 0.253627
H223  H     H_    0.618123 0.002413 0.872583 0.174022
H224  H     H_    0.482660 0.117901 0.570919 0.131727
H225  H     H_    0.395383 0.239985 0.198993 0.104100
H226  H     H_    0.326529 0.287058 0.176161 0.161959
H227  H     H_    0.336247 0.190465 0.135459 0.261513
H228  H     H_    0.423294 0.233837 0.142897 0.189660
H229  H     H_    0.404762 0.143921 0.158334 0.263734
H230  H     H_    0.882199 0.500820 0.429590 0.131638
H231  H     H_    0.116677 0.519330 0.570543 0.131347
H232  H     H_    0.226629 0.462174 0.917051 0.264572
H233  H     H_    0.279320 0.463460 0.952641 0.258007
H234  H     H_    0.255700 0.377503 0.934548 0.251494
H235  H     H_    0.176353 0.400823 0.980366 0.211103
H236  H     H_    0.124710 0.398788 0.945061 0.229882
H237  H     H_    0.129713 0.537771 0.943205 0.211382
H238  H     H_    0.178647 0.539944 0.977677 0.198063
H239  H     H_    0.383169 0.983638 0.127365 0.172858
H240  H     H_    0.769581 0.444076 0.082482 0.264565
H241  H     H_    0.718731 0.439026 0.046468 0.258927
H242  H     H_    0.749015 0.356367 0.065322 0.249812
H243  H     H_    0.828131 0.384939 0.020008 0.211500
H244  H     H_    0.878037 0.389124 0.055722 0.229936
H245  H     H_    0.861890 0.526788 0.056697 0.209842
H246  H     H_    0.813017 0.523854 0.022183 0.199036
H247  H     H_    0.529446 0.230044 0.916331 0.264514
H248  H     H_    0.526602 0.284063 0.951643 0.258186
H249  H     H_    0.613061 0.263374 0.933410 0.251375
H250  H     H_    0.002505 0.618591 0.872622 0.174593
H251  H     H_    0.593951 0.184767 0.979657 0.210933
H252  H     H_    0.597011 0.131862 0.944636 0.230012
H253  H     H_    0.457647 0.131901 0.943490 0.211154
H254  H     H_    0.455226 0.181261 0.977955 0.198577
H255  H     H_    0.566432 0.774170 0.081400 0.264555
H256  H     H_    0.573688 0.725098 0.044937 0.258575
H257  H     H_    0.654880 0.758299 0.064107 0.250512
H258  H     H_    0.622725 0.837867 0.019441 0.212039
H259  H     H_    0.616953 0.886174 0.055600 0.230594
H260  H     H_    0.480530 0.865254 0.056748 0.210256
H261  H     H_    0.984944 0.617827 0.127743 0.174393
H262  H     H_    0.484298 0.816433 0.022160 0.198640
H263  H     H_    0.766024 0.536648 0.917546 0.263548
H264  H     H_    0.714840 0.538488 0.953597 0.258194
H265  H     H_    0.738403 0.622856 0.934281 0.251039
H266  H     H_    0.819319 0.601841 0.979727 0.211688
H267  H     H_    0.869496 0.601569 0.943950 0.230282
H268  H     H_    0.865202 0.463075 0.943299 0.210286
H269  H     H_    0.815864 0.462092 0.977779 0.199253
H270  H     H_    0.220268 0.564471 0.083187 0.264874
H271  H     H_    0.273676 0.565839 0.047688 0.257453
H272  H     H_    0.381666 0.999093 0.872757 0.174672
H273  H     H_    0.242438 0.650344 0.064861 0.250800
H274  H     H_    0.166059 0.618575 0.019375 0.211369
H275  H     H_    0.113735 0.616271 0.054553 0.229675
H276  H     H_    0.131909 0.478387 0.056929 0.211222
H277  H     H_    0.181140 0.480320 0.022441 0.197517
H278  H     H_    0.470166 0.772363 0.916109 0.264088
H279  H     H_    0.473560 0.718270 0.951304 0.258201
H280  H     H_    0.386828 0.738896 0.933459 0.251419
H281  H     H_    0.406467 0.817429 0.979777 0.210951
H282  H     H_    0.402899 0.870417 0.944870 0.229959
H283  H     H_    0.617125 0.018014 0.127401 0.172304
H284  H     H_    0.542289 0.870385 0.943188 0.211244
H285  H     H_    0.545123 0.821105 0.977581 0.198645
H286  H     H_    0.435357 0.227710 0.082172 0.265584
H287  H     H_    0.428174 0.277385 0.045936 0.258702
H288  H     H_    0.346908 0.244297 0.065160 0.250276
H289  H     H_    0.378336 0.165191 0.020113 0.211816
H290  H     H_    0.384256 0.116361 0.056053 0.229759
H291  H     H_    0.520887 0.137126 0.056826 0.209940
H292  H     H_    0.516729 0.185952 0.022321 0.198479
H293  H     H_    0.726602 0.962086 0.417053 0.264608
H294  H     H_    0.495580 0.882001 0.372696 0.175601
H295  H     H_    0.779280 0.963355 0.452644 0.258054
H296  H     H_    0.755635 0.877415 0.434549 0.251529
H297  H     H_    0.676298 0.900768 0.480365 0.211154
H298  H     H_    0.624665 0.898746 0.445060 0.229931
H299  H     H_    0.629712 0.037718 0.443203 0.211410
H300  H     H_    0.678646 0.039875 0.477675 0.198083
H301  H     H_    0.269609 0.944186 0.582496 0.264592
H302  H     H_    0.218739 0.939162 0.546488 0.258971
H303  H     H_    0.248989 0.856495 0.565341 0.249838
H304  H     H_    0.328084 0.885023 0.520017 0.211539
O1    O     O_3   0.500000 1.000000 0.750000 -0.512705
O2    O     O_R   0.439140 0.000000 0.180550 -0.634698
O3    O     O_R   1.000000 0.560860 0.819450 -0.638504
O4    O     O_R   1.000000 0.439140 0.180550 -0.653246
O5    O     O_R   0.939140 0.500000 0.319450 -0.638095
O6    O     O_R   0.060860 0.500000 0.680550 -0.637872
O7    O     O_R   0.500000 0.939140 0.319450 -0.636706
O8    O     O_R   0.500000 0.060860 0.680550 -0.633563
O9    O     O_R   0.060860 0.500000 0.319450 -0.639443
O10   O     O_R   0.939140 0.500000 0.680550 -0.634698
O11   O     O_R   0.500000 0.060860 0.319450 -0.638502
O12   O     O_3   0.500000 0.000000 0.250000 -0.514552
O13   O     O_R   0.500000 0.939140 0.680550 -0.653248
O14   O     O_R   0.646030 0.085480 0.768310 -0.613550
O15   O     O_R   0.353970 0.914520 0.231690 -0.615005
O16   O     O_R   0.914520 0.646030 0.768310 -0.615665
O17   O     O_R   0.085480 0.353970 0.231690 -0.631856
O18   O     O_R   0.353970 0.914520 0.768310 -0.613082
O19   O     O_R   0.646030 0.085480 0.231690 -0.617137
O20   O     O_R   0.085480 0.353970 0.768310 -0.614319
O21   O     O_R   0.914520 0.646030 0.231690 -0.616460
O22   O     O_R   0.646030 0.914520 0.231690 -0.606538
O23   O     O_3   1.000000 0.500000 0.750000 -0.514551
O24   O     O_R   0.353970 0.085480 0.768310 -0.605279
O25   O     O_R   0.914520 0.353970 0.231690 -0.618435
O26   O     O_R   0.085480 0.646030 0.768310 -0.604774
O27   O     O_R   0.353970 0.085480 0.231690 -0.607186
O28   O     O_R   0.646030 0.914520 0.768310 -0.602074
O29   O     O_R   0.085480 0.646030 0.231690 -0.606604
O30   O     O_R   0.914520 0.353970 0.768310 -0.607325
O31   O     O_R   0.146030 0.585480 0.268310 -0.613552
O32   O     O_R   0.853970 0.414520 0.731690 -0.615003
O33   O     O_R   0.414520 0.146030 0.268310 -0.615665
O34   O     O_3   0.000000 0.500000 0.250000 -0.512705
O35   O     O_R   0.585480 0.853970 0.731690 -0.631862
O36   O     O_R   0.853970 0.414520 0.268310 -0.613083
O37   O     O_R   0.146030 0.585480 0.731690 -0.617137
O38   O     O_R   0.585480 0.853970 0.268310 -0.614319
O39   O     O_R   0.414520 0.146030 0.731690 -0.616460
O40   O     O_R   0.146030 0.414520 0.731690 -0.606539
O41   O     O_R   0.853970 0.585480 0.268310 -0.605278
O42   O     O_R   0.414520 0.853970 0.731690 -0.618431
O43   O     O_R   0.585480 0.146030 0.268310 -0.604774
O44   O     O_R   0.853970 0.585480 0.731690 -0.607188
O45   O     O_R   0.439140 0.000000 0.819450 -0.638095
O46   O     O_R   0.146030 0.414520 0.268310 -0.602075
O47   O     O_R   0.585480 0.146030 0.731690 -0.606603
O48   O     O_R   0.414520 0.853970 0.268310 -0.607325
O49   O     O_3   0.308871 0.203331 0.693316 -0.537409
O50   O     O_3   0.691068 0.796564 0.306696 -0.535787
O51   O     O_3   0.801440 0.304196 0.693375 -0.544409
O52   O     O_3   0.199918 0.694841 0.306893 -0.536370
O53   O     O_3   0.680615 0.786338 0.694918 -0.583499
O54   O     O_3   0.310339 0.205476 0.307162 -0.534045
O55   O     O_3   0.201072 0.693748 0.693223 -0.540073
O56   O     O_R   0.560860 0.000000 0.180550 -0.637873
O57   O     O_3   0.799141 0.306075 0.306802 -0.536069
O58   O     O_3   0.307086 0.799343 0.306543 -0.532080
O59   O     O_3   0.691578 0.200555 0.693933 -0.541544
O60   O     O_3   0.794866 0.689246 0.306339 -0.531634
O61   O     O_3   0.206929 0.312333 0.693732 -0.532871
O62   O     O_3   0.691379 0.202320 0.306428 -0.532099
O63   O     O_3   0.309755 0.796427 0.693585 -0.539051
O64   O     O_3   0.206362 0.312841 0.306721 -0.530199
O65   O     O_3   0.794693 0.686609 0.694608 -0.574859
O66   O     O_3   0.808872 0.703331 0.193316 -0.537410
O67   O     O_R   1.000000 0.439140 0.819450 -0.636709
O68   O     O_3   0.191069 0.296565 0.806696 -0.535788
O69   O     O_3   0.301444 0.804192 0.193375 -0.544411
O70   O     O_3   0.699921 0.194839 0.806892 -0.536369
O71   O     O_3   0.180608 0.286330 0.194919 -0.583495
O72   O     O_3   0.810334 0.705472 0.807163 -0.534047
O73   O     O_3   0.701070 0.193749 0.193223 -0.540074
O74   O     O_3   0.299139 0.806077 0.806802 -0.536068
O75   O     O_3   0.807092 0.299335 0.806543 -0.532079
O76   O     O_3   0.191580 0.700554 0.193933 -0.541543
O77   O     O_3   0.294866 0.189246 0.806339 -0.531634
O78   O     O_R   0.000000 0.560860 0.180550 -0.633562
O79   O     O_3   0.706931 0.812335 0.193733 -0.532871
O80   O     O_3   0.191375 0.702325 0.806428 -0.532098
O81   O     O_3   0.809757 0.296425 0.193585 -0.539050
O82   O     O_3   0.706360 0.812840 0.806721 -0.530199
O83   O     O_3   0.294688 0.186605 0.194608 -0.574858
O84   O     O_R   0.560860 0.000000 0.819450 -0.639443
Zn1   Zn    Zn3+2 0.500000 0.086800 0.724180 0.981024
Zn2   Zn    Zn3+2 1.000000 0.413200 0.775820 0.980848
Zn3   Zn    Zn3+2 0.413200 0.000000 0.224180 0.978246
Zn4   Zn    Zn3+2 0.586800 0.000000 0.775820 0.989665
Zn5   Zn    Zn3+2 1.000000 0.413200 0.224180 0.951722
Zn6   Zn    Zn3+2 1.000000 0.586800 0.775820 0.981932
Zn7   Zn    Zn3+2 0.586800 0.000000 0.224180 0.979346
Zn8   Zn    Zn3+2 0.413200 0.000000 0.775820 0.979059
Zn9   Zn    Zn3+2 0.500000 0.913200 0.275820 0.980851
Zn10  Zn    Zn3+2 0.913200 0.500000 0.724180 0.978245
Zn11  Zn    Zn3+2 0.086800 0.500000 0.275820 0.989663
Zn12  Zn    Zn3+2 0.500000 0.913200 0.724180 0.951727
Zn13  Zn    Zn3+2 0.500000 0.086800 0.275820 0.981934
Zn14  Zn    Zn3+2 0.086800 0.500000 0.724180 0.979345
Zn15  Zn    Zn3+2 0.913200 0.500000 0.275820 0.979057
Zn16  Zn    Zn3+2 1.000000 0.586800 0.224180 0.981023

loop_
_geom_bond_atom_site_label_1
_geom_bond_atom_site_label_2
_ccdc_geom_bond_type
C250  O27   A    
C124  C220  S    
C28   C47   A    
C126  C127  S    
O7    Zn9   S    
C63   H259  S    
C85   H11   S    
C216  C219  A    
C55   C56   S    
C137  O64   S    
C117  H81   S    
C201  C225  A    
C102  H51   S    
C130  H114  S    
C135  C219  S    
C104  H45   S    
C170  O81   S    
C95   C216  S    
O2    Zn3   S    
C208  C227  A    
C249  O37   A    
O27   Zn3   S    
C106  H55   S    
C115  O53   S    
C254  O49   S    
C21   C33   A    
C54   H234  S    
C143  C144  S    
C90   C176  A    
C136  H129  S    
C52   C201  S    
C122  H94   S    
C95   H34   S    
C191  C196  A    
C74   H278  S    
C12   C42   A    
C126  H102  S    
O48   Zn9   S    
C57   H57   S    
C156  C158  S    
C103  H49   S    
C128  O60   S    
C67   H263  S    
C25   C30   A    
C229  O2    A    
C150  H164  S    
O17   Zn5   S    
C167  H208  S    
C33   O83   S    
C174  H226  S    
C239  O16   A    
C89   H17   S    
C153  H171  S    
C8    C38   A    
C228  O45   A    
O23   Zn2   S    
C100  H39   S    
C169  H210  S    
C162  H193  S    
C47   C247  S    
C17   O66   S    
C119  H85   S    
O23   Zn6   S    
C131  H116  S    
C164  H199  S    
C245  O38   A    
C108  H61   S    
C116  H78   S    
C234  O7    A    
C145  H152  S    
C236  O8    A    
C109  H64   S    
C82   H4    S    
C84   H301  S    
C71   H271  S    
C99   H40   S    
C25   C41   A    
C44   C256  A    
C127  H106  S    
C167  O80   S    
C24   H24   S    
C160  H187  S    
C33   C50   A    
C158  H184  S    
C42   C242  S    
C164  H200  S    
C29   C45   A    
C112  H112  S    
C23   C31   A    
C73   H282  S    
C1    C193  A    
C75   C76   S    
C147  H156  S    
O12   Zn9   S    
C120  H88   S    
C241  O18   A    
C179  C202  A    
C119  O55   S    
C242  O43   A    
C139  C140  S    
C55   C203  S    
C82   H5    S    
C139  H137  S    
C159  O75   S    
C205  C226  A    
C114  H72   S    
C111  H69   S    
O30   Zn2   S    
C87   H6    S    
C154  C155  S    
C45   C255  A    
C118  H84   S    
C196  C235  A    
C81   H296  S    
C249  O26   A    
C31   C48   A    
C118  H83   S    
C79   C179  A    
C209  C226  A    
C86   H10   S    
C175  H227  S    
C180  H223  S    
C60   H252  S    
C105  C106  S    
C147  H154  S    
O1    Zn1   S    
C202  H250  S    
C34   C243  S    
C133  H122  S    
C88   H19   S    
C72   C73   S    
C165  O79   S    
C55   H246  S    
C128  H108  S    
C27   O76   S    
C155  H178  S    
O67   Zn2   S    
C129  H110  S    
C9    O59   S    
C53   H235  S    
C76   H290  S    
C237  O47   A    
C101  C227  S    
C64   H255  S    
C171  H215  S    
C7    C48   A    
C78   H300  S    
C130  C131  S    
C92   H27   S    
C90   C223  S    
C68   H68   S    
O45   Zn8   S    
C215  C220  A    
C59   H254  S    
C142  H145  S    
C161  H192  S    
C58   H240  S    
O20   Zn2   S    
C191  H239  S    
C69   C70   S    
C5    C15   A    
C46   C198  A    
O3    Zn6   S    
C107  H59   S    
C149  H161  S    
C88   C89   S    
C24   C200  A    
C48   C248  S    
C98   C99   S    
C231  O78   A    
C160  H188  S    
C230  O67   A    
C244  O41   A    
C134  H125  S    
C120  H89   S    
C58   H241  S    
C59   C60   S    
C243  O20   A    
C228  O84   A    
C110  H66   S    
C105  O49   S    
C84   H303  S    
O39   Zn1   S    
C141  O66   S    
C237  O14   A    
C128  C129  S    
C194  C213  A    
C39   C239  S    
C26   C44   A    
C167  C169  S    
C148  H158  S    
C85   C86   S    
C212  C222  A    
C22   O72   S    
C158  H182  S    
C171  H217  S    
C172  H219  S    
C22   C32   A    
C52   H237  S    
C24   C187  A    
C124  C184  A    
O34   Zn5   S    
C78   C80   S    
C152  O72   S    
C94   H22   S    
C170  C171  S    
C77   H288  S    
C115  C116  S    
O1    Zn12  S    
C241  O42   A    
C11   C254  A    
C92   C215  S    
C231  O4    A    
O14   Zn4   S    
C185  H179  S    
C174  C175  S    
C70   H275  S    
C105  H53   S    
C125  H99   S    
C240  O46   A    
C3    O52   S    
C35   H35   S    
C35   C188  A    
C251  O35   A    
C156  H181  S    
C7    O57   S    
C170  H214  S    
C17   C36   A    
C89   C91   S    
O19   Zn7   S    
C16   C39   A    
C187  H201  S    
C50   C250  S    
O84   Zn4   S    
C66   C67   S    
C140  H139  S    
C173  H221  S    
C141  H142  S    
C4    O53   S    
C157  C221  S    
C248  O25   A    
C98   H43   S    
C170  H213  S    
C93   H26   S    
C71   H273  S    
C7    C12   A    
C30   O80   S    
C240  O17   A    
O9    Zn11  S    
C4    C51   A    
C18   C28   A    
C200  C233  S    
C47   C254  A    
C100  H38   S    
C91   H16   S    
C18   O68   S    
C124  C188  A    
C132  O62   S    
C142  H143  S    
C131  H117  S    
C6    O55   S    
C136  H128  S    
C66   H267  S    
C138  H134  S    
C41   C241  S    
C4    C16   A    
C115  H74   S    
C132  H119  S    
C99   H41   S    
C13   H13   S    
C38   C238  S    
C83   C84   S    
C90   C181  A    
C104  H44   S    
C176  H90   S    
C83   H304  S    
C204  C227  A    
C143  H147  S    
C121  H91   S    
C112  C194  A    
C154  H175  S    
O23   Zn10  S    
C62   H260  S    
C75   H291  S    
C103  H48   S    
C112  C176  A    
C234  O11   A    
C14   C41   A    
C63   H258  S    
C26   O75   S    
C46   C189  A    
C87   H7    S    
C52   C53   S    
C35   C197  A    
C218  C221  A    
C174  O83   S    
C81   H293  S    
C5    O54   S    
C13   C199  A    
C156  H180  S    
C194  C231  S    
C157  C187  A    
O34   Zn11  S    
C233  O6    A    
C147  H155  S    
C134  O63   S    
C182  C224  A    
C145  H153  S    
C2    C185  A    
C40   C240  S    
C117  C118  S    
C20   C37   A    
C159  H185  S    
C113  C183  A    
C21   C40   A    
C67   H265  S    
C22   C39   A    
C56   C58   S    
C122  H95   S    
C165  H203  S    
C102  C103  S    
C156  O74   S    
C74   H279  S    
C102  C218  S    
C63   C64   S    
C117  O54   S    
O24   Zn8   S    
O23   Zn14  S    
C152  C153  S    
C239  O44   A    
C163  O77   S    
C150  C151  S    
C181  C213  A    
C135  C185  A    
O42   Zn12  S    
C11   O61   S    
C183  C235  A    
C190  H230  S    
C167  H207  S    
C165  H202  S    
C186  H190  S    
C144  H149  S    
C154  O73   S    
C252  O29   A    
C224  H272  S    
C17   C29   A    
C73   C74   S    
C54   H233  S    
C10   O60   S    
O43   Zn13  S    
C118  H82   S    
C91   H14   S    
C169  H209  S    
C162  H194  S    
C32   O82   S    
C161  C162  S    
C211  C219  A    
O16   Zn6   S    
C28   O77   S    
C207  C223  A    
O26   Zn6   S    
C6    C14   A    
C93   C94   S    
C80   H297  S    
C109  H63   S    
C84   H302  S    
C193  C230  S    
C116  H76   S    
C56   H243  S    
C137  H131  S    
C1    H1    S    
C195  C224  A    
C146  C222  S    
C44   C253  S    
C127  H105  S    
C111  O52   S    
O47   Zn1   S    
C172  H218  S    
C64   H257  S    
C153  H172  S    
C73   H281  S    
C116  H77   S    
C204  C209  A    
C83   H3    S    
C70   C71   S    
C151  H166  S    
C25   O74   S    
C121  O57   S    
O6    Zn14  S    
C49   C249  S    
C184  H168  S    
C113  C178  A    
C81   H295  S    
C69   H277  S    
C97   H30   S    
C188  H212  S    
C85   H12   S    
C163  H196  S    
C20   O70   S    
C145  C147  S    
O8    Zn1   S    
C230  O3    A    
C177  H101  S    
C14   O63   S    
C102  H50   S    
C203  C206  A    
C140  H138  S    
C69   C207  S    
C36   C244  S    
C107  O50   S    
C133  H121  S    
C96   H33   S    
C72   C208  S    
C55   H245  S    
C45   C245  S    
O78   Zn16  S    
C86   C87   S    
C80   C81   S    
C166  H204  S    
C149  H162  S    
C1    C168  A    
C129  H109  S    
C53   C54   S    
C108  H60   S    
C193  C202  A    
C10   C255  A    
C60   C61   S    
C64   H256  S    
C122  H93   S    
C155  H176  S    
C126  O59   S    
C199  C232  S    
C32   C51   A    
C62   C63   S    
C123  H97   S    
C214  C221  A    
C59   H253  S    
O10   Zn10  S    
O13   Zn12  S    
C159  C160  S    
C161  H191  S    
C3    C43   A    
C206  C225  A    
O4    Zn5   S    
C201  C207  A    
C203  C223  A    
O34   Zn15  S    
C139  H136  S    
C232  O9    A    
C121  C122  S    
C180  C195  A    
C251  O28   A    
C159  H186  S    
C127  H104  S    
C174  H225  S    
C160  H189  S    
C3    C8    A    
C144  H151  S    
O32   Zn10  S    
C29   O79   S    
C252  O31   A    
C89   H18   S    
C5    C50   A    
O12   Zn13  S    
O46   Zn11  S    
C169  H211  S    
C153  H173  S    
C253  O30   A    
C65   H269  S    
C134  H126  S    
C119  H86   S    
C130  H115  S    
O36   Zn15  S    
C217  C222  A    
C58   H242  S    
C75   C209  S    
C13   C186  A    
C15   O64   S    
C146  C186  A    
C106  H54   S    
C51   C251  S    
C97   H29   S    
O22   Zn7   S    
C119  C120  S    
C72   H284  S    
C166  H205  S    
C166  H206  S    
C158  H183  S    
C181  H135  S    
O56   Zn7   S    
C52   H238  S    
C148  O70   S    
C157  C192  A    
C31   O81   S    
C198  C236  S    
C109  C110  S    
C97   H31   S    
C120  H87   S    
C244  O21   A    
C113  C226  S    
O35   Zn12  S    
O25   Zn5   S    
C77   H287  S    
C210  C216  A    
C92   C93   S    
C96   H32   S    
C243  O40   A    
C111  C114  S    
C114  H71   S    
C111  H70   S    
C88   H20   S    
C15   C40   A    
C168  H79   S    
C101  C177  A    
C105  H52   S    
C125  H98   S    
C27   C43   A    
O18   Zn8   S    
C196  C229  S    
C92   H28   S    
C82   C83   S    
C98   C217  S    
O37   Zn14  S    
C103  C104  S    
O21   Zn16  S    
C68   C192  A    
C12   O62   S    
C10   C36   A    
C86   H9    S    
C141  C142  S    
C246  H294  S    
C235  H283  S    
C175  H228  S    
O38   Zn9   S    
C213  H261  S    
C233  O10   A    
C248  O36   A    
C161  O76   S    
C211  C215  A    
C140  H140  S    
C247  O39   A    
C165  C166  S    
C141  H141  S    
C152  H170  S    
C133  H123  S    
C163  C164  S    
C145  O69   S    
C182  H146  S    
C178  H113  S    
C106  H56   S    
C16   O65   S    
C128  H107  S    
C93   H25   S    
C126  H103  S    
O28   Zn4   S    
C250  O33   A    
C129  H111  S    
C53   H236  S    
C108  H62   S    
C76   H289  S    
C23   C42   A    
C88   C214  S    
C195  C228  S    
C175  H229  S    
C171  H216  S    
C78   H299  S    
C19   C38   A    
C91   H15   S    
C150  O71   S    
C142  H144  S    
C173  H222  S    
C197  C246  A    
O5    Zn15  S    
C210  C220  A    
C123  H96   S    
C110  H67   S    
C69   H276  S    
C135  C189  A    
C123  C125  S    
C94   H23   S    
C43   C252  S    
C132  H120  S    
C72   H285  S    
C132  C133  S    
C255  O50   S    
C152  H169  S    
C79   C168  A    
O44   Zn10  S    
C77   H286  S    
C253  O32   A    
C117  H80   S    
C23   O73   S    
C71   H270  S    
C151  H167  S    
C59   C204  S    
C155  H177  S    
C67   H264  S    
C229  O56   A    
C149  H160  S    
O31   Zn11  S    
C172  O82   S    
C179  H124  S    
C148  C149  S    
C163  H197  S    
C61   H249  S    
C75   H292  S    
C134  C136  S    
C65   C206  S    
C65   H268  S    
C245  O22   A    
O15   Zn3   S    
C192  H231  S    
C46   H46   S    
C70   H274  S    
C125  H100  S    
C37   C237  S    
C99   C100  S    
O29   Zn16  S    
C107  C108  S    
C177  C180  A    
C238  O48   A    
C96   C97   S    
C62   H262  S    
C9    C37   A    
C109  O51   S    
C189  H224  S    
C150  H163  S    
C95   H36   S    
C61   H248  S    
C76   C77   S    
C18   C34   A    
O12   Zn3   S    
C74   H280  S    
O11   Zn13  S    
C2    H2    S    
O1    Zn4   S    
O33   Zn13  S    
C139  O65   S    
C138  H132  S    
C236  O13   A    
C9    C256  A    
C61   H247  S    
C98   H42   S    
C85   C212  S    
C238  O15   A    
C183  H157  S    
C19   C27   A    
C172  C173  S    
C82   C211  S    
C205  C208  A    
C247  O24   A    
O41   Zn15  S    
C173  H220  S    
C78   C210  S    
C143  O68   S    
C144  H150  S    
C62   C205  S    
C2    C198  A    
C184  C246  A    
C30   C49   A    
C11   C34   A    
C100  H37   S    
C214  C217  A    
C8    O58   S    
C162  H195  S    
C60   H251  S    
O34   Zn16  S    
C197  C234  S    
C130  O61   S    
C131  H118  S    
C104  H47   S    
C123  O58   S    
C137  C138  S    
C136  H127  S    
C66   H266  S    
C138  H133  S    
C80   H298  S    
C68   C200  A    
C110  H65   S    
C232  O5    A    
C56   H244  S    
C114  H73   S    
C57   C190  A    
C21   O71   S    
C137  H130  S    
C94   H21   S    
C178  C191  A    
C107  H58   S    
C20   C26   A    
C256  O51   S    
C54   H232  S    
C164  H198  S    
C6    C49   A    
C143  H148  S    
C121  H92   S    
C242  O19   A    
C154  H174  S    
O12   Zn7   S    
C19   O69   S    
C65   C66   S    
O1    Zn8   S    
C95   C96   S    
O40   Zn14  S    
C146  C190  A    
C151  H165  S    
C87   H8    S    
C79   C225  S    
C57   C199  A    
C101  C182  A    
C115  H75   S    
C212  C218  A    
C148  H159  S    
