data_mof_unit_4887.cif
_audit_creation_date              2012-12-10T17:27:44-0500
_audit_creation_method            fapswitch 2.2
_symmetry_space_group_name_H-M    P1
_symmetry_Int_Tables_number       1
_space_group_crystal_system       triclinic
_cell_length_a                    18.301933
_cell_length_b                    18.302058
_cell_length_c                    43.01437
_cell_angle_alpha                 89.999981
_cell_angle_beta                  90.000013
_cell_angle_gamma                 89.628416
_cell_volume                      14407.9211043

loop_
_atom_site_label
_atom_site_type_symbol
_atom_type_description
_atom_site_fract_x
_atom_site_fract_y
_atom_site_fract_z
_atom_type_partial_charge
C1    C     C_R   0.039764 0.553353 0.884863 0.214368
C2    C     C_R   0.510760 0.933992 0.614218 0.212081
C3    C     C_R   0.639823 0.860177 0.750000 0.479739
C4    C     C_R   0.139943 0.639944 0.250000 0.481245
C5    C     C_R   0.860070 0.360070 0.750000 0.468025
C6    C     C_R   0.639831 0.860172 0.250001 0.480296
C7    C     C_R   0.360177 0.139823 0.750000 0.479739
C8    C     C_R   0.500003 0.000003 0.530944 0.339902
C9    C     C_R   0.500003 0.000005 0.468124 0.339841
C10   C     C_R   1.000000 0.500003 0.531876 0.339832
C11   C     C_R   0.000000 0.500001 0.469056 0.339904
C12   C     C_R   0.999991 0.500002 0.030943 0.339915
C13   C     C_R   0.933989 0.510745 0.385782 0.212074
C14   C     C_R   0.999988 0.500003 0.968124 0.339821
C15   C     C_R   0.500016 0.999973 0.031871 0.339867
C16   C     C_R   0.500008 0.999984 0.969051 0.339886
C17   C     C_R   0.999996 0.500001 0.868505 0.014899
C18   C     C_R   0.000002 0.500001 0.130877 0.006388
C19   C     C_R   0.500002 0.999998 0.869121 0.006381
C20   C     C_R   0.500004 0.999993 0.131491 0.014889
C21   C     C_R   0.500002 0.000000 0.368505 0.014911
C22   C     C_R   0.500001 0.000001 0.630878 0.006382
C23   C     C_R   1.000000 0.499999 0.369123 0.006383
C24   C     C_R   0.053352 0.539770 0.615138 0.214367
C25   C     C_R   1.000000 0.500001 0.631495 0.014902
C26   C     C_R   0.290083 0.602821 0.762874 -0.096782
C27   C     C_R   0.710243 0.396764 0.236266 -0.094008
C28   C     C_R   0.379749 0.271691 0.784764 -0.110864
C29   C     C_R   0.621418 0.729393 0.214343 -0.096216
C30   C     C_R   0.709916 0.397180 0.762873 -0.096781
C31   C     C_R   0.289753 0.603236 0.236263 -0.093983
C32   C     C_R   0.620251 0.728309 0.784763 -0.110865
C33   C     C_R   0.378579 0.270602 0.214342 -0.096215
C34   C     C_R   0.271674 0.379717 0.215214 -0.110886
C35   C     C_R   0.460229 0.946652 0.384863 0.214363
C36   C     C_R   0.729359 0.621394 0.785637 -0.096256
C37   C     C_R   0.397164 0.709939 0.237086 -0.096811
C38   C     C_R   0.603218 0.289767 0.763704 -0.093961
C39   C     C_R   0.728331 0.620284 0.215213 -0.110882
C40   C     C_R   0.270641 0.378606 0.785638 -0.096256
C41   C     C_R   0.602836 0.290056 0.237080 -0.096826
C42   C     C_R   0.396782 0.710233 0.763704 -0.093961
C43   C     C_R   0.790076 0.102829 0.262895 -0.096797
C44   C     C_R   0.210234 0.896780 0.736293 -0.093942
C45   C     C_R   0.879723 0.771662 0.284784 -0.110884
C46   C     C_R   0.489243 0.066009 0.614218 0.212081
C47   C     C_R   0.121398 0.229366 0.714358 -0.096244
C48   C     C_R   0.209922 0.897173 0.262891 -0.096801
C49   C     C_R   0.789766 0.103220 0.736293 -0.093943
C50   C     C_R   0.120275 0.228338 0.284783 -0.110882
C51   C     C_R   0.878602 0.770634 0.714358 -0.096244
C52   C     C_R   0.771684 0.879739 0.715230 -0.110875
C53   C     C_R   0.229375 0.121415 0.285654 -0.096250
C54   C     C_R   0.897179 0.209919 0.737124 -0.096780
C55   C     C_R   0.103224 0.789758 0.263723 -0.093959
C56   C     C_R   0.228316 0.120261 0.715230 -0.110874
C57   C     C_R   0.066010 0.489252 0.385782 0.212078
C58   C     C_R   0.770621 0.878583 0.285655 -0.096247
C59   C     C_R   0.102821 0.790081 0.737124 -0.096781
C60   C     C_R   0.896773 0.210244 0.263725 -0.093966
C61   C     C_R   0.362540 0.584082 0.768899 -0.130022
C62   C     C_R   0.637685 0.415673 0.230552 -0.128087
C63   C     C_R   0.388657 0.334721 0.802508 -0.140476
C64   C     C_R   0.612086 0.665872 0.196967 -0.132540
C65   C     C_R   0.637459 0.415918 0.768898 -0.130023
C66   C     C_R   0.362312 0.584323 0.230546 -0.128067
C67   C     C_R   0.611343 0.665279 0.802507 -0.140476
C68   C     C_R   0.946646 0.460234 0.615138 0.214366
C69   C     C_R   0.387912 0.334122 0.196965 -0.132531
C70   C     C_R   0.334689 0.388604 0.197458 -0.140404
C71   C     C_R   0.665821 0.612051 0.803002 -0.132587
C72   C     C_R   0.415897 0.637490 0.231039 -0.129991
C73   C     C_R   0.584295 0.362333 0.769396 -0.128116
C74   C     C_R   0.665314 0.611393 0.197459 -0.140409
C75   C     C_R   0.334179 0.387948 0.803002 -0.132586
C76   C     C_R   0.584102 0.362504 0.231040 -0.129982
C77   C     C_R   0.415705 0.637668 0.769397 -0.128116
C78   C     C_R   0.862529 0.084096 0.268932 -0.130030
C79   C     C_R   0.323806 0.730531 0.756364 0.010440
C80   C     C_R   0.137668 0.915702 0.730598 -0.128103
C81   C     C_R   0.888621 0.834679 0.302537 -0.140416
C82   C     C_R   0.112061 0.165834 0.696989 -0.132566
C83   C     C_R   0.137467 0.915907 0.268927 -0.130029
C84   C     C_R   0.862332 0.084298 0.730598 -0.128103
C85   C     C_R   0.111375 0.165320 0.302535 -0.140416
C86   C     C_R   0.887939 0.834166 0.696990 -0.132566
C87   C     C_R   0.834709 0.888642 0.697482 -0.140417
C88   C     C_R   0.165849 0.112087 0.303027 -0.132559
C89   C     C_R   0.915918 0.137462 0.731096 -0.130017
C90   C     C_R   0.676053 0.269500 0.243850 0.007875
C91   C     C_R   0.084304 0.862320 0.269426 -0.128113
C92   C     C_R   0.165291 0.111358 0.697482 -0.140417
C93   C     C_R   0.834147 0.887911 0.303029 -0.132556
C94   C     C_R   0.084082 0.862538 0.731096 -0.130018
C95   C     C_R   0.915692 0.137683 0.269430 -0.128118
C96   C     C_R   0.999988 0.500004 0.933958 -0.024617
C97   C     C_R   0.999996 0.500003 0.065134 -0.023483
C98   C     C_R   0.500005 0.999991 0.934863 -0.023580
C99   C     C_R   0.500020 0.999969 0.066037 -0.024565
C100  C     C_R   0.500003 0.000003 0.433958 -0.024613
C101  C     C_R   0.260198 0.314828 0.767543 0.011339
C102  C     C_R   0.500003 0.000002 0.565134 -0.023540
C103  C     C_R   1.000000 0.499999 0.434866 -0.023525
C104  C     C_R   0.999999 0.500003 0.566042 -0.024619
C105  C     C_3   0.150030 0.577793 0.863069 0.007603
C106  C     C_3   0.195355 0.636789 0.847160 -0.246272
C107  C     C_3   0.274358 0.611857 0.842697 -0.491076
C108  C     C_3   0.097315 0.356493 0.133363 0.015242
C109  C     C_3   0.109301 0.283529 0.149943 -0.245865
C110  C     C_3   0.190211 0.263230 0.151484 -0.481315
C111  C     C_3   0.356663 0.097560 0.866627 0.015232
C112  C     C_R   0.010739 0.433990 0.114217 0.212065
C113  C     C_R   0.739521 0.684841 0.232703 0.007533
C114  C     C_3   0.283666 0.109666 0.850086 -0.245893
C115  C     C_3   0.263453 0.190601 0.848588 -0.481385
C116  C     C_3   0.578296 0.149844 0.136847 0.007601
C117  C     C_3   0.637236 0.194836 0.152971 -0.246124
C118  C     C_3   0.612739 0.274030 0.157270 -0.491012
C119  C     C_3   0.849962 0.422209 0.863065 0.007606
C120  C     C_3   0.804638 0.363209 0.847158 -0.246274
C121  C     C_3   0.725634 0.388138 0.842694 -0.491076
C122  C     C_3   0.902677 0.643503 0.133361 0.015226
C123  C     C_3   0.890682 0.716462 0.149944 -0.245867
C124  C     C_R   0.676194 0.269469 0.756364 0.010439
C125  C     C_3   0.809771 0.736759 0.151479 -0.481323
C126  C     C_3   0.643343 0.902435 0.866623 0.015231
C127  C     C_3   0.716340 0.890332 0.850083 -0.245893
C128  C     C_3   0.736556 0.809398 0.848585 -0.481384
C129  C     C_3   0.421753 0.850157 0.136879 0.007581
C130  C     C_3   0.362731 0.805075 0.152897 -0.246261
C131  C     C_3   0.387341 0.725949 0.157278 -0.491050
C132  C     C_3   0.650048 0.077788 0.363073 0.007586
C133  C     C_3   0.695373 0.136777 0.347158 -0.246275
C134  C     C_3   0.774391 0.111868 0.342720 -0.491084
C135  C     C_R   0.323946 0.730498 0.243853 0.007913
C136  C     C_3   0.597362 0.856527 0.633366 0.015239
C137  C     C_3   0.609373 0.783564 0.649944 -0.245862
C138  C     C_3   0.690289 0.763291 0.651482 -0.481329
C139  C     C_3   0.856506 0.597333 0.366637 0.015238
C140  C     C_3   0.783542 0.609332 0.350058 -0.245859
C141  C     C_3   0.763250 0.690243 0.348522 -0.481329
C142  C     C_3   0.077796 0.650034 0.636931 0.007601
C143  C     C_3   0.136794 0.695356 0.652841 -0.246272
C144  C     C_3   0.111867 0.774361 0.657302 -0.491071
C145  C     C_3   0.349960 0.922222 0.363072 0.007591
C146  C     C_R   0.739801 0.685172 0.767543 0.011339
C147  C     C_3   0.304620 0.863222 0.347173 -0.246273
C148  C     C_3   0.225619 0.888166 0.342712 -0.491065
C149  C     C_3   0.402639 0.143473 0.633365 0.015239
C150  C     C_3   0.390626 0.216436 0.649944 -0.245862
C151  C     C_3   0.309710 0.236708 0.651481 -0.481330
C152  C     C_3   0.143493 0.402665 0.366636 0.015241
C153  C     C_3   0.216459 0.390667 0.350057 -0.245859
C154  C     C_3   0.236749 0.309756 0.348520 -0.481326
C155  C     C_3   0.922204 0.349969 0.636930 0.007600
C156  C     C_3   0.863207 0.304646 0.652841 -0.246271
C157  C     C_R   0.260481 0.315159 0.232704 0.007529
C158  C     C_3   0.888136 0.225641 0.657301 -0.491072
C159  C     C_3   0.073196 0.618817 0.934773 -0.249719
C160  C     C_3   0.016681 0.675524 0.945094 -0.424903
C161  C     C_3   0.004775 0.360220 0.064281 -0.250627
C162  C     C_3   0.927673 0.341000 0.053615 -0.427726
C163  C     C_3   0.360240 0.005078 0.935723 -0.250600
C164  C     C_3   0.340778 0.927995 0.946329 -0.427662
C165  C     C_3   0.619174 0.072633 0.065224 -0.249809
C166  C     C_3   0.675550 0.015823 0.054865 -0.424966
C167  C     C_3   0.926781 0.381191 0.934772 -0.249712
C168  C     C_R   0.314816 0.260180 0.232447 0.011340
C169  C     C_3   0.983294 0.324481 0.945092 -0.424885
C170  C     C_3   0.995195 0.639788 0.064281 -0.250675
C171  C     C_3   0.072259 0.658980 0.053558 -0.427792
C172  C     C_3   0.639772 0.994907 0.935720 -0.250601
C173  C     C_3   0.659228 0.071987 0.946332 -0.427663
C174  C     C_3   0.380890 0.927269 0.065225 -0.249783
C175  C     C_3   0.324479 0.984043 0.054867 -0.424955
C176  C     C_3   0.573213 0.118818 0.434771 -0.249725
C177  C     C_3   0.516697 0.175510 0.445107 -0.424895
C178  C     C_3   0.504831 0.860222 0.564280 -0.250624
C179  C     C_R   0.684825 0.739510 0.767285 0.007570
C180  C     C_3   0.427736 0.840968 0.553618 -0.427716
C181  C     C_3   0.860218 0.504805 0.435719 -0.250637
C182  C     C_3   0.840988 0.427716 0.446397 -0.427740
C183  C     C_3   0.118820 0.573201 0.565228 -0.249715
C184  C     C_3   0.175521 0.516681 0.554905 -0.424892
C185  C     C_3   0.426790 0.881191 0.434773 -0.249719
C186  C     C_3   0.483303 0.824495 0.445108 -0.424895
C187  C     C_3   0.495176 0.139782 0.564281 -0.250624
C188  C     C_3   0.572271 0.159036 0.553620 -0.427717
C189  C     C_3   0.139782 0.495199 0.435719 -0.250623
C190  C     C_R   0.269462 0.676203 0.243619 0.010397
C191  C     C_3   0.159020 0.572298 0.446382 -0.427715
C192  C     C_3   0.881178 0.426805 0.565227 -0.249719
C193  C     C_3   0.824484 0.483325 0.554898 -0.424895
C194  C     C_R   0.730488 0.323954 0.756128 0.007942
C195  C     C_R   0.685184 0.739819 0.232447 0.011342
C196  C     C_R   0.434009 0.010857 0.885781 0.212119
C197  C     C_R   0.315175 0.260490 0.767285 0.007571
C198  C     C_R   0.730535 0.323796 0.243619 0.010386
C199  C     C_R   0.269511 0.676046 0.756128 0.007943
C200  C     C_R   0.823801 0.230536 0.256374 0.010445
C201  C     C_R   0.176046 0.769511 0.743870 0.007940
C202  C     C_R   0.760188 0.814817 0.267553 0.011338
C203  C     C_R   0.239513 0.184829 0.732712 0.007542
C204  C     C_R   0.176197 0.769466 0.256374 0.010443
C205  C     C_R   0.823954 0.230489 0.743870 0.007941
C206  C     C_R   0.239810 0.185183 0.267552 0.011338
C207  C     C_R   0.553489 0.039582 0.115132 0.214338
C208  C     C_R   0.760487 0.815171 0.732712 0.007542
C209  C     C_R   0.814826 0.760195 0.732455 0.011347
C210  C     C_R   0.184837 0.239524 0.267295 0.007542
C211  C     C_R   0.769469 0.176195 0.743635 0.010443
C212  C     C_R   0.230490 0.823951 0.256137 0.007934
C213  C     C_R   0.185174 0.239805 0.732454 0.011347
C214  C     C_R   0.815162 0.760476 0.267295 0.007541
C215  C     C_R   0.230531 0.823805 0.743634 0.010443
C216  C     C_R   0.769508 0.176050 0.256138 0.007947
C217  C     C_R   0.303963 0.803962 0.750000 0.006189
C218  C     C_R   0.960223 0.446651 0.884862 0.214367
C219  C     C_R   0.695993 0.195989 0.249998 -0.005140
C220  C     C_R   0.195919 0.304082 0.750000 0.010784
C221  C     C_R   0.804100 0.695898 0.250000 0.007311
C222  C     C_R   0.696037 0.196037 0.750000 0.006189
C223  C     C_R   0.304006 0.804010 0.249998 -0.005129
C224  C     C_R   0.804081 0.695918 0.750000 0.010784
C225  C     C_R   0.195901 0.304102 0.250000 0.007312
C226  C     C_R   0.304079 0.195916 0.250000 0.010792
C227  C     C_R   0.695898 0.804101 0.750000 0.007298
C228  C     C_R   0.196036 0.696039 0.249999 0.006197
C229  C     C_R   0.989262 0.566013 0.114218 0.212053
C230  C     C_R   0.804008 0.304008 0.750000 -0.005120
C231  C     C_R   0.695920 0.804083 0.250000 0.010791
C232  C     C_R   0.304102 0.195899 0.750000 0.007298
C233  C     C_R   0.803961 0.303962 0.249999 0.006202
C234  C     C_R   0.195992 0.695992 0.750000 -0.005119
C235  C     C_R   0.037199 0.555761 0.917612 -0.006113
C236  C     C_R   0.005730 0.433098 0.081473 -0.006792
C237  C     C_R   0.433112 0.005865 0.918526 -0.006790
C238  C     C_R   0.555926 0.036958 0.082383 -0.006175
C239  C     C_R   0.962780 0.444246 0.917612 -0.006122
C240  C     C_R   0.565997 0.989136 0.885780 0.212120
C241  C     C_R   0.994268 0.566908 0.081473 -0.006788
C242  C     C_R   0.566897 0.994122 0.918525 -0.006788
C243  C     C_R   0.444113 0.962983 0.082383 -0.006167
C244  C     C_R   0.537213 0.055760 0.417611 -0.006125
C245  C     C_R   0.505756 0.933099 0.581473 -0.006789
C246  C     C_R   0.933096 0.505739 0.418527 -0.006788
C247  C     C_R   0.055759 0.537209 0.582388 -0.006122
C248  C     C_R   0.462791 0.944246 0.417612 -0.006119
C249  C     C_R   0.494249 0.066904 0.581473 -0.006788
C250  C     C_R   0.066904 0.494258 0.418527 -0.006790
C251  C     C_R   0.446529 0.960389 0.115133 0.214331
C252  C     C_R   0.944238 0.462797 0.582388 -0.006117
C253  C     C_R   1.000000 0.500000 0.665810 0.522821
C254  C     C_R   0.000000 0.500000 0.334415 0.517379
C255  C     C_R   0.500000 0.000000 0.665585 0.517372
C256  C     C_R   0.500001 0.000000 0.334190 0.522830
C257  C     C_R   0.500000 0.000002 0.165808 0.522938
C258  C     C_R   0.500000 1.000000 0.834415 0.517321
C259  C     C_R   0.000000 0.500000 0.165585 0.517387
C260  C     C_R   0.999999 0.500000 0.834190 0.522811
C261  C     C_R   0.860170 0.639829 0.750000 0.480286
C262  C     C_R   0.539776 0.053350 0.384862 0.214363
C263  C     C_R   0.139825 0.360179 0.249999 0.479764
C264  C     C_R   0.360056 0.860056 0.750000 0.481228
C265  C     C_R   0.639931 0.139927 0.250001 0.467897
C266  C     C_R   0.139830 0.360171 0.750000 0.480287
C267  C     C_R   0.860176 0.639821 0.249999 0.479762
C268  C     C_R   0.639943 0.139944 0.750000 0.481228
C269  C     C_R   0.360069 0.860072 0.250000 0.467975
C270  C     C_R   0.860055 0.360057 0.250000 0.481244
C271  C     C_R   0.139930 0.639930 0.750000 0.468024
C272  C     C_R   0.360168 0.139827 0.250001 0.480294
H1    H     H_    0.250789 0.559159 0.764136 0.129493
H2    H     H_    0.770220 0.578456 0.786739 0.099337
H3    H     H_    0.877190 0.599416 0.147487 0.131468
H4    H     H_    0.875228 0.645783 0.110241 0.114338
H5    H     H_    0.912975 0.712852 0.173928 0.206501
H6    H     H_    0.920368 0.760226 0.137351 0.169221
H7    H     H_    0.788048 0.746646 0.127727 0.144725
H8    H     H_    0.802504 0.787281 0.165469 0.164680
H9    H     H_    0.778260 0.692210 0.162486 0.164495
H10   H     H_    0.599257 0.877058 0.852461 0.131444
H11   H     H_    0.645487 0.874939 0.889736 0.114315
H12   H     H_    0.712826 0.912589 0.826090 0.206373
H13   H     H_    0.440822 0.749237 0.235823 0.129443
H14   H     H_    0.760101 0.919990 0.862691 0.169327
H15   H     H_    0.746389 0.787717 0.872348 0.144716
H16   H     H_    0.787090 0.802047 0.834610 0.164690
H17   H     H_    0.691989 0.777909 0.837581 0.164502
H18   H     H_    0.470628 0.851979 0.152302 0.122562
H19   H     H_    0.437040 0.822692 0.114639 0.117985
H20   H     H_    0.350093 0.829377 0.175973 0.194044
H21   H     H_    0.312123 0.806096 0.138607 0.172756
H22   H     H_    0.397232 0.699693 0.134369 0.142980
H23   H     H_    0.344086 0.695101 0.169617 0.166377
H24   H     H_    0.559874 0.250191 0.765405 0.125859
H25   H     H_    0.438352 0.723597 0.171228 0.137868
H26   H     H_    0.648019 0.029071 0.347566 0.122698
H27   H     H_    0.677458 0.062174 0.385284 0.117912
H28   H     H_    0.671109 0.149762 0.324109 0.193916
H29   H     H_    0.694587 0.187236 0.361544 0.172634
H30   H     H_    0.800610 0.101581 0.365605 0.142937
H31   H     H_    0.805433 0.155130 0.330473 0.166333
H32   H     H_    0.776502 0.061019 0.328662 0.137786
H33   H     H_    0.622825 0.900616 0.647498 0.131463
H34   H     H_    0.624825 0.854269 0.610248 0.114333
H35   H     H_    0.768520 0.576678 0.214650 0.103332
H36   H     H_    0.587070 0.787156 0.673927 0.206492
H37   H     H_    0.579705 0.739796 0.637345 0.169237
H38   H     H_    0.712023 0.753416 0.627731 0.144733
H39   H     H_    0.697568 0.712768 0.665470 0.164673
H40   H     H_    0.721784 0.807847 0.662493 0.164489
H41   H     H_    0.900590 0.622809 0.352506 0.131468
H42   H     H_    0.854240 0.624791 0.389755 0.114334
H43   H     H_    0.787141 0.587034 0.326074 0.206492
H44   H     H_    0.739778 0.579652 0.362655 0.169238
H45   H     H_    0.753372 0.711972 0.372273 0.144733
H46   H     H_    0.229780 0.421544 0.786739 0.099338
H47   H     H_    0.712724 0.697512 0.334534 0.164673
H48   H     H_    0.807798 0.721748 0.337511 0.164497
H49   H     H_    0.029088 0.648000 0.652443 0.122713
H50   H     H_    0.062168 0.677450 0.614723 0.117896
H51   H     H_    0.149817 0.671068 0.675883 0.193947
H52   H     H_    0.187234 0.694600 0.638443 0.172591
H53   H     H_    0.101538 0.800605 0.634424 0.142930
H54   H     H_    0.155136 0.805402 0.669544 0.166319
H55   H     H_    0.061036 0.776441 0.671374 0.137779
H56   H     H_    0.351997 0.970918 0.347554 0.122726
H57   H     H_    0.559181 0.250755 0.235813 0.129452
H58   H     H_    0.322554 0.937868 0.385280 0.117896
H59   H     H_    0.328901 0.850174 0.324133 0.193946
H60   H     H_    0.305366 0.812794 0.361579 0.172573
H61   H     H_    0.199383 0.898523 0.365588 0.142924
H62   H     H_    0.194564 0.844894 0.330478 0.166327
H63   H     H_    0.223551 0.938983 0.328631 0.137781
H64   H     H_    0.377175 0.099384 0.647497 0.131462
H65   H     H_    0.375178 0.145732 0.610247 0.114334
H66   H     H_    0.412928 0.212843 0.673927 0.206492
H67   H     H_    0.420294 0.260205 0.637345 0.169237
H68   H     H_    0.440126 0.749809 0.765406 0.125859
H69   H     H_    0.287977 0.246583 0.627730 0.144733
H70   H     H_    0.302430 0.287231 0.665469 0.164672
H71   H     H_    0.278215 0.192152 0.662491 0.164488
H72   H     H_    0.099410 0.377192 0.352504 0.131469
H73   H     H_    0.145758 0.375205 0.389753 0.114333
H74   H     H_    0.212861 0.412968 0.326074 0.206492
H75   H     H_    0.260222 0.420345 0.362656 0.169237
H76   H     H_    0.246627 0.288025 0.372271 0.144733
H77   H     H_    0.287275 0.302487 0.334532 0.164674
H78   H     H_    0.192200 0.278252 0.337509 0.164497
H79   H     H_    0.750781 0.059167 0.264155 0.129497
H80   H     H_    0.970913 0.352002 0.652441 0.122714
H81   H     H_    0.937829 0.322553 0.614721 0.117898
H82   H     H_    0.850185 0.328934 0.675882 0.193949
H83   H     H_    0.812766 0.305400 0.638443 0.172589
H84   H     H_    0.898465 0.199397 0.634424 0.142931
H85   H     H_    0.844867 0.194600 0.669544 0.166319
H86   H     H_    0.938966 0.223563 0.671373 0.137778
H87   H     H_    0.986588 0.697169 0.924605 0.169974
H88   H     H_    0.977134 0.651533 0.961673 0.173695
H89   H     H_    0.044683 0.721574 0.956821 0.128227
H90   H     H_    0.249810 0.940124 0.734591 0.125867
H91   H     H_    0.104428 0.598722 0.955181 0.152668
H92   H     H_    0.113789 0.647138 0.919988 0.174637
H93   H     H_    0.890256 0.338582 0.073921 0.165529
H94   H     H_    0.906485 0.381765 0.036764 0.174257
H95   H     H_    0.928434 0.286709 0.042090 0.128588
H96   H     H_    0.042355 0.361124 0.044067 0.153825
H97   H     H_    0.024420 0.314583 0.079092 0.175720
H98   H     H_    0.338171 0.890692 0.925990 0.165640
H99   H     H_    0.381522 0.906582 0.963137 0.174274
H100  H     H_    0.286522 0.928888 0.957882 0.128584
H101  H     H_    0.923326 0.731470 0.285348 0.103337
H102  H     H_    0.361283 0.042559 0.955970 0.153739
H103  H     H_    0.314661 0.024946 0.920933 0.175622
H104  H     H_    0.697009 0.985516 0.075333 0.169804
H105  H     H_    0.651335 0.976490 0.038253 0.173739
H106  H     H_    0.721776 0.043597 0.043164 0.128253
H107  H     H_    0.599228 0.104034 0.044838 0.152712
H108  H     H_    0.647765 0.113011 0.080022 0.174717
H109  H     H_    0.013384 0.302835 0.924602 0.169975
H110  H     H_    0.022843 0.348470 0.961670 0.173693
H111  H     H_    0.955290 0.278432 0.956819 0.128225
H112  H     H_    0.749818 0.440111 0.234572 0.125854
H113  H     H_    0.078459 0.270226 0.713258 0.099336
H114  H     H_    0.895550 0.401286 0.955180 0.152689
H115  H     H_    0.886186 0.352872 0.919986 0.174627
H116  H     H_    0.109808 0.661168 0.073819 0.165510
H117  H     H_    0.093267 0.618343 0.036622 0.174307
H118  H     H_    0.071520 0.713362 0.042119 0.128568
H119  H     H_    0.957530 0.638903 0.044096 0.153790
H120  H     H_    0.975638 0.685432 0.079108 0.175804
H121  H     H_    0.661822 0.109303 0.925997 0.165634
H122  H     H_    0.618489 0.093386 0.963146 0.174279
H123  H     H_    0.713490 0.071094 0.957881 0.128584
H124  H     H_    0.249216 0.940835 0.264151 0.129490
H125  H     H_    0.638734 0.957416 0.955963 0.153736
H126  H     H_    0.685350 0.975051 0.920927 0.175627
H127  H     H_    0.302995 0.014326 0.075337 0.169841
H128  H     H_    0.348674 0.023399 0.038260 0.173720
H129  H     H_    0.278278 0.956243 0.043161 0.128250
H130  H     H_    0.400853 0.895883 0.044837 0.152731
H131  H     H_    0.352332 0.886867 0.080023 0.174723
H132  H     H_    0.486573 0.197153 0.424625 0.169950
H133  H     H_    0.477176 0.151508 0.461694 0.173694
H134  H     H_    0.544704 0.221564 0.456829 0.128227
H135  H     H_    0.750190 0.059876 0.734591 0.125867
H136  H     H_    0.604471 0.098720 0.455170 0.152702
H137  H     H_    0.613784 0.147157 0.419980 0.174649
H138  H     H_    0.390327 0.838525 0.573926 0.165548
H139  H     H_    0.406523 0.881728 0.536771 0.174262
H140  H     H_    0.428519 0.786681 0.542090 0.128590
H141  H     H_    0.542405 0.861146 0.544064 0.153815
H142  H     H_    0.524502 0.814593 0.579090 0.175718
H143  H     H_    0.838616 0.390271 0.426102 0.165539
H144  H     H_    0.881718 0.406562 0.463267 0.174274
H145  H     H_    0.786677 0.428480 0.457902 0.128586
H146  H     H_    0.076673 0.268530 0.285346 0.103340
H147  H     H_    0.861128 0.542402 0.455928 0.153809
H148  H     H_    0.814582 0.524442 0.420906 0.175743
H149  H     H_    0.197166 0.486587 0.575394 0.169967
H150  H     H_    0.151523 0.477138 0.538327 0.173689
H151  H     H_    0.221572 0.544678 0.543178 0.128227
H152  H     H_    0.098728 0.604438 0.544822 0.152700
H153  H     H_    0.147147 0.613788 0.580015 0.174633
H154  H     H_    0.513420 0.802849 0.424625 0.169954
H155  H     H_    0.522830 0.848496 0.461693 0.173691
H156  H     H_    0.455295 0.778444 0.456831 0.128226
H157  H     H_    0.921541 0.729774 0.713258 0.099336
H158  H     H_    0.395536 0.901291 0.455174 0.152705
H159  H     H_    0.386214 0.852856 0.419984 0.174649
H160  H     H_    0.609680 0.161477 0.573928 0.165547
H161  H     H_    0.593484 0.118277 0.536773 0.174263
H162  H     H_    0.571489 0.213324 0.542092 0.128591
H163  H     H_    0.457603 0.138859 0.544065 0.153815
H164  H     H_    0.475504 0.185410 0.579091 0.175720
H165  H     H_    0.161453 0.609708 0.426074 0.165545
H166  H     H_    0.118256 0.593501 0.463229 0.174260
H167  H     H_    0.213308 0.571526 0.457909 0.128592
H168  H     H_    0.731493 0.923343 0.714666 0.103336
H169  H     H_    0.138867 0.457625 0.455935 0.153820
H170  H     H_    0.185415 0.475538 0.420909 0.175719
H171  H     H_    0.802846 0.513439 0.575383 0.169960
H172  H     H_    0.848484 0.522853 0.538314 0.173695
H173  H     H_    0.778426 0.455325 0.543176 0.128227
H174  H     H_    0.901273 0.395558 0.544824 0.152689
H175  H     H_    0.852843 0.386226 0.580016 0.174644
H176  H     H_    0.270234 0.078474 0.286754 0.099327
H177  H     H_    0.940842 0.249212 0.735862 0.129492
H178  H     H_    0.059882 0.750180 0.265424 0.125847
H179  H     H_    0.268507 0.076657 0.714666 0.103336
H180  H     H_    0.423353 0.231501 0.785326 0.103328
H181  H     H_    0.729763 0.921524 0.286755 0.099336
H182  H     H_    0.059158 0.750788 0.735862 0.129492
H183  H     H_    0.940116 0.249822 0.265426 0.125849
H184  H     H_    0.027875 0.877318 0.726299 0.116720
H185  H     H_    0.971761 0.123007 0.274521 0.116157
H186  H     H_    0.157996 0.062202 0.683870 0.101878
H187  H     H_    0.841105 0.936616 0.316960 0.098014
H188  H     H_    0.972125 0.122682 0.726299 0.116720
H189  H     H_    0.028235 0.876997 0.274517 0.116158
H190  H     H_    0.842004 0.937798 0.683871 0.101878
H191  H     H_    0.578480 0.770255 0.213243 0.099372
H192  H     H_    0.158889 0.063382 0.316958 0.098023
H193  H     H_    0.062224 0.158033 0.316151 0.101877
H194  H     H_    0.936650 0.841128 0.683063 0.098023
H195  H     H_    0.122688 0.972111 0.273730 0.116709
H196  H     H_    0.877012 0.028227 0.725514 0.116166
H197  H     H_    0.937771 0.841966 0.316153 0.101879
H198  H     H_    0.063350 0.158872 0.683063 0.098023
H199  H     H_    0.877307 0.027892 0.273736 0.116706
H200  H     H_    0.122988 0.971772 0.725514 0.116166
H201  H     H_    0.527903 0.377274 0.226229 0.116700
H202  H     H_    0.749210 0.440842 0.764135 0.129495
H203  H     H_    0.471777 0.622986 0.774479 0.116167
H204  H     H_    0.658025 0.562246 0.183842 0.101881
H205  H     H_    0.341144 0.436660 0.816928 0.098031
H206  H     H_    0.472098 0.622716 0.226226 0.116683
H207  H     H_    0.528223 0.377014 0.774477 0.116168
H208  H     H_    0.341979 0.437751 0.183841 0.101876
H209  H     H_    0.658856 0.563340 0.816928 0.098031
H210  H     H_    0.562183 0.657982 0.816116 0.101871
H211  H     H_    0.436613 0.341066 0.183031 0.097979
H212  H     H_    0.622677 0.472126 0.773693 0.116721
H213  H     H_    0.250176 0.559891 0.234567 0.125842
H214  H     H_    0.376988 0.528258 0.225449 0.116142
H215  H     H_    0.437817 0.342018 0.816117 0.101871
H216  H     H_    0.563381 0.658924 0.183034 0.098003
H217  H     H_    0.377322 0.527875 0.773695 0.116720
H218  H     H_    0.623009 0.471738 0.225461 0.116157
H219  H     H_    0.147993 0.529087 0.847557 0.122715
H220  H     H_    0.177446 0.562162 0.885277 0.117893
H221  H     H_    0.171064 0.649817 0.824119 0.193953
H222  H     H_    0.194605 0.687226 0.861559 0.172583
H223  H     H_    0.300604 0.601521 0.865573 0.142931
H224  H     H_    0.576646 0.768498 0.785326 0.103329
H225  H     H_    0.305400 0.655126 0.830455 0.166313
H226  H     H_    0.276431 0.561030 0.828622 0.137779
H227  H     H_    0.122797 0.400574 0.147494 0.131475
H228  H     H_    0.124773 0.354220 0.110245 0.114332
H229  H     H_    0.086995 0.287131 0.173925 0.206496
H230  H     H_    0.079620 0.239768 0.137344 0.169215
H231  H     H_    0.211947 0.253351 0.127734 0.144728
H232  H     H_    0.197470 0.212703 0.165471 0.164677
H233  H     H_    0.221716 0.307775 0.162497 0.164498
H234  H     H_    0.400749 0.122936 0.852465 0.131442
H235  H     H_    0.421512 0.229736 0.213241 0.099399
H236  H     H_    0.354520 0.125055 0.889739 0.114314
H237  H     H_    0.287179 0.087409 0.826094 0.206373
H238  H     H_    0.239904 0.080010 0.862695 0.169328
H239  H     H_    0.253622 0.212282 0.872351 0.144716
H240  H     H_    0.212919 0.197953 0.834614 0.164690
H241  H     H_    0.308022 0.222088 0.837584 0.164500
H242  H     H_    0.529268 0.148079 0.152188 0.122392
H243  H     H_    0.563249 0.177339 0.114582 0.118041
H244  H     H_    0.649552 0.170547 0.176086 0.193938
H245  H     H_    0.688021 0.193679 0.138789 0.172920
H246  H     H_    0.231488 0.423325 0.214651 0.103329
H247  H     H_    0.603204 0.300277 0.134325 0.142991
H248  H     H_    0.655921 0.304799 0.169696 0.166408
H249  H     H_    0.561546 0.276527 0.171105 0.137812
H250  H     H_    0.852001 0.470911 0.847550 0.122715
H251  H     H_    0.822543 0.437846 0.885272 0.117891
H252  H     H_    0.828928 0.350177 0.824118 0.193949
H253  H     H_    0.805389 0.312774 0.861559 0.172586
H254  H     H_    0.699388 0.398475 0.865571 0.142930
H255  H     H_    0.694592 0.344868 0.830453 0.166313
H256  H     H_    0.723559 0.438965 0.828619 0.137781
N1    N     N_R   0.061579 0.482474 0.984065 -0.252746
N2    N     N_R   0.438412 0.017526 0.514994 -0.253350
N3    N     N_R   0.017539 0.438414 0.485007 -0.253349
N4    N     N_R   0.982500 0.561601 0.515934 -0.252728
N5    N     N_R   0.438400 0.017487 0.484066 -0.252731
N6    N     N_R   0.561595 0.982481 0.514994 -0.253349
N7    N     N_R   0.982461 0.561588 0.485006 -0.253348
N8    N     N_R   0.017500 0.438403 0.515934 -0.252728
N9    N     N_R   0.938412 0.517571 0.014994 -0.253345
N10   N     N_R   0.517221 0.938304 0.984998 -0.253342
N11   N     N_R   0.482847 0.061666 0.015931 -0.252732
N12   N     N_R   0.938398 0.517532 0.984066 -0.252727
N13   N     N_R   0.061569 0.482433 0.014992 -0.253356
N14   N     N_R   0.482799 0.061659 0.985003 -0.253343
N15   N     N_R   0.517182 0.938286 0.015926 -0.252760
N16   N     N_R   0.561607 0.982521 0.484066 -0.252726
O1    O     O_3   0.000000 0.500000 0.750000 -0.449512
O2    O     O_R   0.060770 0.500000 0.319330 -0.503892
O3    O     O_R   0.500000 0.939230 0.680670 -0.503888
O4    O     O_R   0.500000 0.060770 0.319330 -0.506602
O5    O     O_R   0.560770 0.000000 0.180670 -0.506503
O6    O     O_R   0.439230 0.000000 0.819330 -0.503867
O7    O     O_R   0.000000 0.560770 0.180670 -0.503883
O8    O     O_R   1.000000 0.439230 0.819330 -0.506610
O9    O     O_R   0.439230 0.000000 0.180670 -0.506519
O10   O     O_R   0.560770 0.000000 0.819330 -0.503863
O11   O     O_R   0.000000 0.439230 0.180670 -0.503901
O12   O     O_3   0.000000 0.500000 0.250000 -0.445021
O13   O     O_R   0.000000 0.560770 0.819330 -0.506610
O14   O     O_R   0.853860 0.585440 0.731810 -0.544551
O15   O     O_R   0.146140 0.414560 0.268190 -0.557182
O16   O     O_R   0.414560 0.853860 0.731810 -0.542764
O17   O     O_R   0.585440 0.146140 0.268190 -0.547102
O18   O     O_R   0.146140 0.414560 0.731810 -0.544551
O19   O     O_R   0.853860 0.585440 0.268190 -0.557183
O20   O     O_R   0.585440 0.146140 0.731810 -0.542763
O21   O     O_R   0.414560 0.853860 0.268190 -0.547121
O22   O     O_R   0.853860 0.414560 0.268190 -0.542742
O23   O     O_3   0.500000 1.000000 0.750000 -0.445038
O24   O     O_R   0.146140 0.585440 0.731810 -0.547195
O25   O     O_R   0.414560 0.146140 0.268190 -0.544539
O26   O     O_R   0.585440 0.853860 0.731810 -0.557195
O27   O     O_R   0.146140 0.585440 0.268190 -0.542743
O28   O     O_R   0.853860 0.414560 0.731810 -0.547196
O29   O     O_R   0.585440 0.853860 0.268190 -0.544543
O30   O     O_R   0.414560 0.146140 0.731810 -0.557195
O31   O     O_R   0.353860 0.085440 0.231810 -0.544519
O32   O     O_R   0.646140 0.914560 0.768190 -0.557140
O33   O     O_R   0.914560 0.353860 0.231810 -0.542769
O34   O     O_3   0.500000 1.000000 0.250000 -0.449509
O35   O     O_R   0.085440 0.646140 0.768190 -0.547191
O36   O     O_R   0.646140 0.914560 0.231810 -0.544514
O37   O     O_R   0.353860 0.085440 0.768190 -0.557138
O38   O     O_R   0.085440 0.646140 0.231810 -0.542765
O39   O     O_R   0.914560 0.353860 0.768190 -0.547189
O40   O     O_R   0.353860 0.914560 0.768190 -0.542748
O41   O     O_R   0.646140 0.085440 0.231810 -0.547431
O42   O     O_R   0.914560 0.646140 0.768190 -0.544550
O43   O     O_R   0.085440 0.353860 0.231810 -0.557186
O44   O     O_R   0.646140 0.085440 0.768190 -0.542748
O45   O     O_R   0.060770 0.500000 0.680670 -0.506607
O46   O     O_R   0.353860 0.914560 0.231810 -0.547366
O47   O     O_R   0.085440 0.353860 0.768190 -0.544549
O48   O     O_R   0.914560 0.646140 0.231810 -0.557189
O49   O     O_3   0.078949 0.605473 0.868680 -0.548166
O50   O     O_3   0.021363 0.368924 0.130041 -0.545335
O51   O     O_3   0.368958 0.021589 0.869959 -0.545275
O52   O     O_3   0.605708 0.078624 0.131319 -0.548140
O53   O     O_3   0.921042 0.394529 0.868678 -0.548164
O54   O     O_3   0.978630 0.631075 0.130043 -0.545335
O55   O     O_3   0.631045 0.978406 0.869956 -0.545274
O56   O     O_R   0.939230 0.500000 0.319330 -0.503888
O57   O     O_3   0.394308 0.921347 0.131317 -0.548145
O58   O     O_3   0.578963 0.105466 0.368677 -0.548164
O59   O     O_3   0.521406 0.868930 0.630041 -0.545321
O60   O     O_3   0.868926 0.521380 0.369958 -0.545323
O61   O     O_3   0.105474 0.578952 0.631321 -0.548165
O62   O     O_3   0.421040 0.894536 0.368680 -0.548170
O63   O     O_3   0.478596 0.131071 0.630042 -0.545320
O64   O     O_3   0.131075 0.478618 0.369959 -0.545323
O65   O     O_3   0.894525 0.421050 0.631321 -0.548168
O66   O     O_R   0.500000 0.060770 0.680670 -0.503887
O67   O     O_R   0.500000 0.939230 0.319330 -0.506609
O68   O     O_R   0.939230 0.500000 0.680670 -0.506606
Zn1   Zn    Zn3+2 1.000000 0.586740 0.775960 0.928431
Zn2   Zn    Zn3+2 0.500000 0.913260 0.724040 0.921442
Zn3   Zn    Zn3+2 0.913260 0.500000 0.275960 0.921460
Zn4   Zn    Zn3+2 0.086740 0.500000 0.724040 0.928433
Zn5   Zn    Zn3+2 0.500000 0.913260 0.275960 0.928461
Zn6   Zn    Zn3+2 0.500000 0.086740 0.724040 0.921443
Zn7   Zn    Zn3+2 0.086740 0.500000 0.275960 0.921458
Zn8   Zn    Zn3+2 0.913260 0.500000 0.724040 0.928432
Zn9   Zn    Zn3+2 1.000000 0.413260 0.224040 0.921434
Zn10  Zn    Zn3+2 0.413260 0.000000 0.775960 0.921510
Zn11  Zn    Zn3+2 0.586740 1.000000 0.224040 0.928373
Zn12  Zn    Zn3+2 0.000000 0.413260 0.775960 0.928433
Zn13  Zn    Zn3+2 1.000000 0.586740 0.224040 0.921445
Zn14  Zn    Zn3+2 0.586740 0.000000 0.775960 0.921512
Zn15  Zn    Zn3+2 0.413260 1.000000 0.224040 0.928398
Zn16  Zn    Zn3+2 0.500000 0.086740 0.275960 0.928468

loop_
_geom_bond_atom_site_label_1
_geom_bond_atom_site_label_2
_ccdc_geom_bond_type
C184  H149  S    
O18   Zn4   S    
C126  C127  S    
C132  H27   S    
C12   N13   A    
C194  C230  A    
C142  O61   S    
O46   Zn15  S    
C127  H14   S    
C216  C219  A    
C229  O54   S    
C271  O35   A    
C114  C115  S    
C191  H166  S    
N9    N12   A    
O23   Zn2   S    
O34   Zn16  S    
C143  H52   S    
C270  O22   A    
C208  C227  A    
C107  H225  S    
C166  H105  S    
C106  C107  S    
C205  C211  A    
C16   N14   A    
C143  C144  S    
C102  C249  A    
C108  C109  S    
C145  H56   S    
C63   H215  S    
C151  H69   S    
C39   C74   A    
C110  H232  S    
C162  H93   S    
C258  O6    A    
C269  O46   A    
C226  C272  S    
C61   H217  S    
C66   C72   A    
C122  O54   S    
C177  H132  S    
C170  H119  S    
C206  C226  A    
C171  H118  S    
C186  H156  S    
C84   H196  S    
C44   H90   S    
O34   Zn11  S    
C29   H191  S    
C36   C71   A    
C33   C69   A    
C196  C237  A    
C164  H98   S    
C6    O36   A    
C13   C246  A    
C251  O57   S    
C29   C64   A    
C217  C264  S    
C219  C265  S    
C14   N1    A    
C27   C198  A    
C258  O10   A    
C150  H66   S    
C157  C168  A    
C36   H2    S    
C94   H184  S    
C7    C232  S    
O23   Zn6   S    
C41   H57   S    
C158  H84   S    
O22   Zn3   S    
C55   H178  S    
C118  H248  S    
C140  C141  S    
C128  H16   S    
C37   H13   S    
C129  O57   S    
C165  H107  S    
C121  H254  S    
C189  C250  S    
C183  C184  S    
C160  H88   S    
C181  H148  S    
C139  H42   S    
C222  C268  S    
C51   C209  A    
C176  H137  S    
C54   C205  A    
O16   Zn2   S    
C126  H11   S    
C204  C212  A    
C154  H77   S    
C123  H5    S    
C202  C214  A    
C17   C260  S    
C141  H48   S    
C113  C221  A    
C12   C97   S    
C144  H55   S    
O13   Zn1   S    
O42   Zn1   S    
C184  H151  S    
C124  C222  A    
C96   C239  A    
C33   C168  A    
O2    Zn7   S    
C63   C75   A    
C169  H109  S    
C135  C223  A    
C6    O29   A    
C172  H126  S    
C197  C232  A    
C261  O42   A    
C51   H157  S    
C255  O3    A    
C145  O62   S    
C60   H183  S    
C203  C213  A    
C45   C81   A    
C115  H240  S    
C139  C140  S    
C175  H129  S    
C21   C35   A    
C272  O31   A    
C253  O68   A    
C83   C91   A    
C28   C197  A    
C257  O5    A    
C156  C158  S    
C130  C131  S    
C259  O7    A    
C29   C195  A    
C21   C256  S    
C138  H39   S    
C211  C222  A    
C16   C98   S    
C201  C234  A    
C254  O56   A    
C177  H134  S    
C1    C235  A    
C69   H211  S    
C156  H83   S    
C171  H116  S    
C91   H189  S    
C269  O21   A    
C152  O64   S    
C2    O59   S    
O27   Zn7   S    
C98   C242  A    
C60   C200  A    
C180  H138  S    
C164  H100  S    
C60   C95   A    
C136  H34   S    
C58   C202  A    
C138  H40   S    
C124  C194  A    
C155  C156  S    
C64   H216  S    
C209  C224  A    
C33   H235  S    
O45   Zn4   S    
C109  C110  S    
C107  H223  S    
C202  C231  A    
C41   C76   A    
C108  O50   S    
C87   H190  S    
C104  C252  A    
O1    Zn4   S    
C105  H219  S    
C147  C148  S    
O3    Zn2   S    
C193  H172  S    
C116  O52   S    
C98   C237  A    
C121  H256  S    
C11   N3    A    
C165  C238  S    
N6    N16   A    
C183  H152  S    
C190  C228  A    
C49   C84   A    
C257  O9    A    
C2    C245  A    
C109  H230  S    
C223  C269  S    
C132  O58   S    
C178  H141  S    
C168  C226  A    
C203  C232  A    
C38   C73   A    
C105  H220  S    
C111  O51   S    
C79   C217  A    
C191  H167  S    
C170  C171  S    
C126  H10   S    
C256  O4    A    
C13   C23   A    
C24   O61   S    
C189  C191  S    
C114  H237  S    
C174  C175  S    
C163  H102  S    
C9    N16   A    
C186  H154  S    
C40   C101  A    
C99   C238  A    
C175  H128  S    
O10   Zn14  S    
C10   N4    A    
C39   C113  A    
C57   O64   S    
C261  O14   A    
C169  H111  S    
C67   C71   A    
C100  C244  A    
C20   C257  S    
C167  C239  S    
O20   Zn6   S    
C42   C79   A    
N11   N14   A    
C38   H24   S    
C153  H74   S    
C69   C70   A    
O1    Zn8   S    
C149  H64   S    
C148  H61   S    
C43   C216  A    
C147  H60   S    
O12   Zn3   S    
O41   Zn11  S    
C262  O58   S    
C272  O25   A    
C176  H136  S    
C16   N10   A    
C11   N7    A    
O43   Zn9   S    
C243  C251  A    
C267  O48   A    
C131  H23   S    
C48   C212  A    
C192  H175  S    
C200  C233  A    
C75   H205  S    
C106  H222  S    
C65   C73   A    
C233  C270  S    
C25   C253  S    
C11   C103  S    
C192  C252  S    
C140  H43   S    
C85   H193  S    
O36   Zn11  S    
C127  H12   S    
C187  C249  S    
C28   C63   A    
C135  C190  A    
C2    C22   A    
C221  C267  S    
C27   C62   A    
C180  H140  S    
C146  C224  A    
O37   Zn10  S    
C206  C210  A    
C15   N11   A    
N4    N7    A    
C166  H104  S    
C37   C135  A    
C53   C206  A    
C22   C255  S    
C141  H45   S    
C155  H80   S    
C174  H130  S    
C32   C67   A    
C71   H209  S    
C189  H170  S    
C125  H9    S    
C129  H18   S    
C9    C100  S    
O23   Zn10  S    
C244  C262  A    
C134  H31   S    
C225  C263  S    
C185  H158  S    
C172  C242  S    
C40   H46   S    
C120  C121  S    
O35   Zn1   S    
C129  C130  S    
O12   Zn7   S    
C184  H150  S    
C23   C57   A    
C34   C70   A    
C173  H122  S    
C82   H198  S    
C159  C235  S    
C131  H25   S    
C136  C137  S    
C198  C233  A    
C26   H1    S    
C107  H226  S    
C191  H165  S    
C125  H8    S    
C1    C17   A    
C48   C83   A    
C117  H245  S    
C111  H236  S    
O31   Zn15  S    
C5    O39   A    
C54   H177  S    
C122  H3    S    
C271  O24   A    
C59   H182  S    
C166  H106  S    
C159  H91   S    
C200  C216  A    
C96   C235  A    
C160  H89   S    
C110  H233  S    
C179  C227  A    
C162  H94   S    
C30   C65   A    
C34   C157  A    
O21   Zn5   S    
C21   C262  A    
C173  H123  S    
C105  O49   S    
C152  C153  S    
C50   C210  A    
C42   C77   A    
C170  H120  S    
C126  O55   S    
C156  H82   S    
C171  H117  S    
C117  H244  S    
C5    C230  S    
C24   C247  A    
C32   H224  S    
C67   H210  S    
C182  H143  S    
C119  H250  S    
C139  O60   S    
C38   C124  A    
C17   C218  A    
C65   H212  S    
N2    N5    A    
N1    N13   A    
C27   H112  S    
C170  C241  S    
C161  H97   S    
C167  C169  S    
C76   H201  S    
C72   H206  S    
C150  H67   S    
C108  H228  S    
C161  C162  S    
C144  H54   S    
C234  C271  S    
C56   C203  A    
C3    O32   A    
C43   C78   A    
C102  C245  A    
C35   C248  A    
C116  H243  S    
O47   Zn12  S    
O1    Zn1   S    
C158  H85   S    
C26   C61   A    
C18   C112  A    
C123  C125  S    
O19   Zn3   S    
C118  H249  S    
C82   C92   A    
C108  H227  S    
C253  O45   A    
C68   O65   S    
C181  H147  S    
C55   C91   A    
C149  O63   S    
C50   C85   A    
C188  H161  S    
C139  H41   S    
C213  C220  A    
C46   O63   S    
C52   H168  S    
C208  C209  A    
C112  O50   S    
C154  H78   S    
C8    N6    A    
O26   Zn2   S    
C59   C94   A    
O6    Zn10  S    
O29   Zn5   S    
C66   H214  S    
C163  H103  S    
O28   Zn8   S    
C157  C225  A    
C147  H59   S    
C176  C244  S    
C42   H68   S    
O12   Zn9   S    
C68   C252  A    
C119  H251  S    
C52   C208  A    
C62   C76   A    
C25   C68   A    
C133  H29   S    
C218  C239  A    
C23   C254  S    
C93   H187  S    
C51   C86   A    
C14   C96   S    
C145  C147  S    
C270  O33   A    
O25   Zn16  S    
C128  H17   S    
C188  H160  S    
C53   H176  S    
C267  O19   A    
O34   Zn15  S    
C44   C80   A    
C115  H239  S    
O24   Zn4   S    
O8    Zn12  S    
C181  C246  S    
C10   N8    A    
C112  C236  A    
C97   C236  A    
C154  H76   S    
C83   H195  S    
C131  H22   S    
C151  H70   S    
C110  H231  S    
C192  H174  S    
C46   C249  A    
C100  C248  A    
C214  C221  A    
C50   H146  S    
C178  C245  S    
C229  C241  A    
C43   H79   S    
C159  C160  S    
C31   C190  A    
C177  H133  S    
C78   C95   A    
C89   H188  S    
C186  H155  S    
C80   H200  S    
O1    Zn12  S    
C183  C247  S    
O33   Zn9   S    
C132  H26   S    
C185  C248  S    
C22   C46   A    
O12   Zn13  S    
C61   C77   A    
C182  H145  S    
C133  C134  S    
C80   C94   A    
C127  C128  S    
C3    C227  S    
C35   O62   S    
C79   C199  A    
C86   C87   A    
C118  H247  S    
C128  H15   S    
C18   C229  A    
C141  H47   S    
C7    O30   A    
C7    O37   A    
C178  C180  S    
C119  C120  S    
C193  H171  S    
C15   N15   A    
O30   Zn6   S    
C165  H108  S    
C105  C106  S    
C121  H255  S    
O66   Zn6   S    
C40   C75   A    
C12   N9    A    
C268  O44   A    
N3    N8    A    
C160  H87   S    
C143  H51   S    
C187  C188  S    
C161  H96   S    
C149  C150  S    
C178  H142  S    
C152  H72   S    
C101  C220  A    
C185  C186  S    
C30   C194  A    
C88   H192  S    
C55   C204  A    
C47   C213  A    
C187  H164  S    
C268  O20   A    
C149  H65   S    
C146  C179  A    
C111  C114  S    
C101  C197  A    
C4    C228  S    
C99   C243  A    
C114  H238  S    
C264  O40   A    
C137  H37   S    
C49   H135  S    
C34   H246  S    
C97   C241  A    
C175  H127  S    
O17   Zn16  S    
C37   C72   A    
C130  H20   S    
C64   C74   A    
C142  C143  S    
C77   H203  S    
C58   C93   A    
C14   N12   A    
C57   C250  A    
C117  C118  S    
C169  H110  S    
C218  O53   S    
C172  H125  S    
C263  O15   A    
C31   C66   A    
C264  O16   A    
C165  C166  S    
C44   C215  A    
C163  C164  S    
C148  H62   S    
C220  C266  S    
C19   C258  S    
C4    O38   A    
C123  H6    S    
C92   H186  S    
C130  H21   S    
C265  O41   A    
C62   H218  S    
O5    Zn11  S    
C167  H114  S    
C215  C217  A    
C138  H38   S    
C1    O49   S    
C140  H44   S    
C181  C182  S    
C116  H242  S    
C116  C117  S    
C47   C82   A    
C45   H101  S    
C201  C215  A    
C164  H99   S    
C136  H33   S    
C133  H28   S    
C132  C133  S    
O7    Zn13  S    
O14   Zn8   S    
C78   H199  S    
C255  O66   A    
O44   Zn14  S    
C266  O47   A    
C32   C179  A    
C204  C228  A    
C159  H92   S    
C174  H131  S    
C207  C238  A    
C152  H73   S    
C104  C247  A    
C189  H169  S    
C41   C90   A    
N10   N15   A    
C136  O59   S    
C6    C231  S    
C113  C195  A    
C266  O18   A    
C205  C230  A    
C207  O52   S    
C134  H32   S    
O9    Zn15  S    
C31   H213  S    
C187  H163  S    
C28   H180  S    
C193  H173  S    
C45   C214  A    
C254  O2    A    
O38   Zn13  S    
O67   Zn5   S    
O40   Zn10  S    
O68   Zn8   S    
C103  C246  A    
O32   Zn14  S    
C24   C25   A    
C240  O55   S    
C54   C89   A    
C4    O27   A    
C199  C234  A    
C74   H204  S    
C73   H207  S    
C155  O65   S    
C20   C251  A    
C125  H7    S    
C196  O51   S    
C8    N2    A    
C39   H35   S    
C58   H181  S    
C120  H252  S    
C122  H4    S    
C81   C93   A    
C59   C201  A    
C56   C92   A    
O39   Zn12  S    
C49   C211  A    
C240  C242  A    
C18   C259  S    
C195  C231  A    
C151  H71   S    
C111  H234  S    
C26   C199  A    
C137  H36   S    
C259  O11   A    
C90   C219  A    
C167  H115  S    
C174  C243  S    
C47   H113  S    
C36   C146  A    
C176  C177  S    
O15   Zn7   S    
C13   O60   S    
C210  C225  A    
C153  H75   S    
C95   H185  S    
C84   C89   A    
O34   Zn5   S    
C182  H144  S    
O4    Zn16  S    
O56   Zn3   S    
C172  C173  S    
C85   C88   A    
C150  C151  S    
C103  C250  A    
C183  H153  S    
C52   C87   A    
C81   H197  S    
C260  O8    A    
C15   C99   S    
C106  H221  S    
C163  C237  S    
C70   H208  S    
C224  C261  S    
C90   C198  A    
O23   Zn14  S    
C109  H229  S    
C134  H30   S    
C137  C138  S    
C20   C207  A    
C30   H202  S    
C56   H179  S    
C192  C193  S    
C158  H86   S    
C10   C104  S    
C142  H50   S    
C162  H95   S    
C19   C240  A    
C180  H139  S    
C142  H49   S    
C9    N5    A    
C161  C236  S    
C256  O67   A    
C86   H194  S    
C173  H121  S    
C119  O53   S    
C53   C88   A    
C260  O13   A    
C145  H58   S    
C148  H63   S    
C120  H253  S    
C48   H124  S    
C188  H162  S    
C3    O26   A    
C19   C196  A    
C265  O17   A    
O48   Zn13  S    
C129  H19   S    
C115  H241  S    
C122  C123  S    
C155  H81   S    
C263  O43   A    
O11   Zn9   S    
C153  C154  S    
C185  H159  S    
C8    C102  S    
C5    O28   A    
C144  H53   S    
C212  C223  A    
